11
charge=0
  C    4.345000000   1.367000000  35.624000000
  H    4.849000000   0.766000000  34.865000000
  C    3.464000000   0.436000000  36.471000000
  H    2.815000000  -0.136000000  35.806000000
  H    4.069000000  -0.271000000  37.037000000
  H    2.823000000   1.003000000  37.147000000
  C    3.508000000   2.415000000  34.905000000
  H    2.927000000   2.996000000  35.618000000
  H    4.155000000   3.082000000  34.333000000
  H    2.822000000   1.921000000  34.216000000
  H    5.180000000   1.889000000  36.300000000
