7
charge=-1
  C   13.523000000  15.428000000  21.941000000
  H   14.071000000  16.140000000  22.559000000
  H   12.496000000  15.386000000  22.311000000
  C   14.125000000  14.036000000  22.094000000
  O   14.294000000  13.323000000  21.080000000
  O   14.436000000  13.658000000  23.242000000
  H   13.506000000  15.803000000  20.821000000
