19
charge=+1
  C   15.815000000   3.611000000  24.771000000
  H   15.363000000   3.820000000  25.743000000
  H   16.728000000   4.198000000  24.699000000
  C   14.896000000   4.098000000  23.662000000
  H   15.345000000   3.851000000  22.699000000
  H   13.927000000   3.601000000  23.731000000
  C   14.694000000   5.596000000  23.736000000
  H   14.107000000   5.817000000  24.630000000
  H   15.656000000   6.093000000  23.851000000
  N   13.987000000   6.117000000  22.568000000
  H   12.980000000   6.184000000  22.619000000
  C   14.584000000   6.502000000  21.444000000
  N   15.904000000   6.417000000  21.320000000
  H   16.493000000   6.179000000  22.099000000
  H   16.336000000   6.703000000  20.439000000
  N   13.856000000   6.965000000  20.438000000
  H   12.862000000   7.090000000  20.531000000
  H   14.333000000   7.347000000  19.618000000
  H   16.074000000   2.465000000  24.691000000
