7
charge=-1
  C   19.918000000  14.083000000  22.604000000
  H   20.244000000  14.380000000  23.600000000
  H   19.029000000  13.459000000  22.693000000
  C   21.011000000  13.259000000  21.939000000
  O   21.498000000  13.644000000  20.856000000
  O   21.404000000  12.224000000  22.509000000
  H   19.634000000  15.049000000  21.990000000
