16
charge=0
  C   14.744000000   7.029000000  30.028000000
  O   13.942000000   7.114000000  29.101000000
  N   15.916000000   6.393000000  29.879000000
  C   16.329000000   5.916000000  28.543000000
  H   16.125000000   6.653000000  27.766000000
  H   15.842000000   4.967000000  28.315000000
  C   17.827000000   5.716000000  28.710000000
  H   18.351000000   6.671000000  28.641000000
  H   18.221000000   5.006000000  27.982000000
  C   17.899000000   5.173000000  30.101000000
  H   18.918000000   5.179000000  30.493000000
  H   17.478000000   4.176000000  30.147000000
  C   16.958000000   6.104000000  30.868000000
  H   16.544000000   5.526000000  31.684000000
  H   14.463000000   7.448000000  31.093000000
  H   17.558000000   6.997000000  31.324000000
