9
charge=0
  C    7.491000000   1.426000000  37.669000000
  O    7.734000000   2.591000000  37.983000000
  N    6.421000000   1.072000000  36.961000000
  H    6.363000000   0.119000000  36.622000000
  C    5.430000000   2.046000000  36.503000000
  H    5.951000000   2.795000000  35.902000000
  H    8.210000000   0.561000000  37.992000000
  H    4.919000000   2.581000000  37.417000000
  H    4.595000000   1.524000000  35.827000000
