19
charge=+1
  C   -1.521000000  22.377000000   9.339000000
  H   -2.067000000  22.905000000  10.120000000
  H   -2.150000000  21.580000000   8.963000000
  C   -0.248000000  21.777000000   9.994000000
  H    0.323000000  21.284000000   9.206000000
  H    0.365000000  22.582000000  10.403000000
  C   -0.529000000  20.756000000  11.083000000
  H   -0.828000000  21.272000000  11.998000000
  H   -1.357000000  20.123000000  10.761000000
  N    0.665000000  19.954000000  11.321000000
  H    1.539000000  20.455000000  11.376000000
  C    0.735000000  18.626000000  11.366000000
  N   -0.336000000  17.849000000  11.260000000
  H   -1.269000000  18.230000000  11.253000000
  H   -0.226000000  16.836000000  11.153000000
  N    1.916000000  18.071000000  11.533000000
  H    2.756000000  18.618000000  11.462000000
  H    1.964000000  17.059000000  11.597000000
  H   -1.290000000  23.138000000   8.465000000
