9
charge=0
  C    0.889000000   9.831000000  16.659000000
  H    0.070000000   9.112000000  16.624000000
  H    1.077000000  10.143000000  15.647000000
  C    2.159000000   9.155000000  17.149000000
  O    3.248000000   9.715000000  17.038000000
  N    2.027000000   7.927000000  17.671000000
  H    2.835000000   7.491000000  18.087000000
  H    1.123000000   7.482000000  17.725000000
  H    0.571000000  10.756000000  17.322000000
