10
charge=-1
  C   -3.694000000  15.253000000  12.313000000
  H   -3.309000000  14.715000000  13.168000000
  H   -4.238000000  14.553000000  11.707000000
  C   -2.589000000  15.831000000  11.446000000
  H   -3.018000000  16.404000000  10.625000000
  H   -2.056000000  16.480000000  12.123000000
  C   -1.611000000  14.784000000  10.941000000
  O   -1.984000000  13.586000000  10.869000000
  O   -0.482000000  15.184000000  10.616000000
  H   -4.540000000  16.021000000  12.641000000
