19
charge=0
  C    7.929000000  11.814000000   7.291000000
  H    7.334000000  11.936000000   6.385000000
  H    8.383000000  10.825000000   7.213000000
  C    7.025000000  11.773000000   8.473000000
  C    7.131000000  12.477000000   9.642000000
  H    7.925000000  13.160000000   9.908000000
  N    6.105000000  12.131000000  10.492000000
  H    6.023000000  12.463000000  11.450000000
  C    5.326000000  11.181000000   9.885000000
  C    4.177000000  10.530000000  10.334000000
  H    3.782000000  10.731000000  11.313000000
  C    3.568000000   9.639000000   9.484000000
  H    2.674000000   9.127000000   9.806000000
  C    4.104000000   9.358000000   8.219000000
  H    3.628000000   8.622000000   7.594000000
  C    5.237000000  10.009000000   7.756000000
  H    5.638000000   9.796000000   6.775000000
  C    5.869000000  10.946000000   8.603000000
  H    8.800000000  12.608000000   7.330000000
