19
charge=0
  C   -8.339000000   3.210000000  12.649000000
  H   -8.977000000   3.786000000  11.980000000
  H   -8.297000000   3.733000000  13.592000000
  C   -6.919000000   3.177000000  12.094000000
  C   -6.100000000   2.084000000  11.993000000
  H   -6.362000000   1.073000000  12.281000000
  N   -4.892000000   2.446000000  11.455000000
  H   -4.121000000   1.808000000  11.290000000
  C   -4.892000000   3.797000000  11.234000000
  C   -3.883000000   4.631000000  10.702000000
  H   -2.921000000   4.230000000  10.417000000
  C   -4.176000000   5.970000000  10.551000000
  H   -3.401000000   6.623000000  10.204000000
  C   -5.427000000   6.503000000  10.946000000
  H   -5.613000000   7.561000000  10.834000000
  C   -6.433000000   5.665000000  11.470000000
  H   -7.394000000   6.067000000  11.756000000
  C   -6.159000000   4.291000000  11.626000000
  H   -8.818000000   2.142000000  12.841000000
