19
charge=0
  C    2.824000000   6.693000000   4.488000000
  H    2.040000000   6.140000000   5.008000000
  H    3.796000000   6.287000000   4.770000000
  C    2.772000000   8.143000000   4.932000000
  C    1.823000000   8.738000000   5.733000000
  H    0.978000000   8.227000000   6.177000000
  N    2.118000000  10.090000000   5.892000000
  H    1.580000000  10.750000000   6.451000000
  C    3.237000000  10.395000000   5.153000000
  C    3.907000000  11.631000000   4.985000000
  H    3.557000000  12.527000000   5.475000000
  C    5.040000000  11.643000000   4.201000000
  H    5.588000000  12.568000000   4.080000000
  C    5.512000000  10.461000000   3.558000000
  H    6.404000000  10.508000000   2.950000000
  C    4.833000000   9.241000000   3.704000000
  H    5.194000000   8.349000000   3.221000000
  C    3.685000000   9.196000000   4.540000000
  H    2.671000000   6.603000000   3.306000000
