11
charge=0
  C    5.231000000   8.142000000  13.203000000
  H    5.479000000   9.184000000  13.002000000
  C    5.134000000   7.388000000  11.873000000
  H    4.351000000   7.821000000  11.258000000
  H    6.073000000   7.447000000  11.324000000
  H    4.887000000   6.346000000  12.053000000
  C    3.895000000   8.063000000  13.907000000
  H    3.128000000   8.500000000  13.279000000
  H    3.635000000   7.022000000  14.099000000
  H    3.934000000   8.597000000  14.851000000
  H    6.094000000   7.659000000  13.891000000
