9
charge=0
  C    1.367000000  13.194000000  18.153000000
  O    0.234000000  13.706000000  18.196000000
  N    1.582000000  11.950000000  17.761000000
  H    2.515000000  11.563000000  17.761000000
  C    0.476000000  11.034000000  17.521000000
  H   -0.338000000  11.550000000  17.016000000
  H    2.304000000  13.791000000  18.493000000
  H    0.089000000  10.638000000  18.557000000
  H    0.794000000  10.109000000  16.858000000
