12
charge=0
  C    5.555000000  16.461000000   7.571000000
  H    5.449000000  17.469000000   7.969000000
  H    5.644000000  16.551000000   6.489000000
  C    4.293000000  15.727000000   7.903000000
  N    3.187000000  16.366000000   8.429000000
  C    2.202000000  15.493000000   8.569000000
  H    1.208000000  15.707000000   8.936000000
  N    2.620000000  14.313000000   8.129000000
  H    2.042000000  13.475000000   8.075000000
  C    3.918000000  14.442000000   7.682000000
  H    4.519000000  13.661000000   7.242000000
  H    6.552000000  15.992000000   8.033000000
