11
charge=0
  C    6.494000000   3.823000000  11.924000000
  H    6.684000000   4.857000000  11.640000000
  C    5.906000000   3.062000000  10.693000000
  H    4.976000000   3.535000000  10.378000000
  H    6.604000000   3.081000000   9.860000000
  H    5.700000000   2.029000000  10.970000000
  C    5.455000000   3.789000000  13.062000000
  H    4.502000000   4.185000000  12.712000000
  H    5.302000000   2.764000000  13.398000000
  H    5.789000000   4.387000000  13.907000000
  H    7.516000000   3.328000000  12.296000000
