7
charge=-1
  C    6.314000000  27.415000000  11.896000000
  H    6.022000000  27.630000000  12.926000000
  H    5.477000000  27.691000000  11.254000000
  C    6.584000000  25.925000000  11.757000000
  O    7.677000000  25.460000000  12.142000000
  O    5.675000000  25.211000000  11.282000000
  H    7.246000000  28.095000000  11.613000000
