9
charge=0
  C   -1.400000000  32.149000000  15.078000000
  O   -1.184000000  31.607000000  16.164000000
  N   -2.521000000  31.992000000  14.379000000
  H   -2.600000000  32.449000000  13.482000000
  C   -3.639000000  31.163000000  14.816000000
  H   -4.446000000  31.345000000  14.105000000
  H   -0.604000000  32.842000000  14.581000000
  H   -4.052000000  31.423000000  15.878000000
  H   -3.356000000  30.017000000  14.772000000
