9
charge=0
  C   -1.895000000  32.515000000   1.802000000
  O   -1.675000000  31.512000000   1.123000000
  N   -2.293000000  32.470000000   3.068000000
  H   -2.465000000  33.338000000   3.573000000
  C   -2.573000000  31.215000000   3.743000000
  H   -2.304000000  30.357000000   3.134000000
  H   -1.761000000  33.590000000   1.366000000
  H   -3.722000000  31.260000000   3.922000000
  H   -2.011000000  31.157000000   4.764000000
