9
charge=0
  C    0.236000000  35.657000000   5.261000000
  O    0.249000000  34.991000000   6.298000000
  N    0.936000000  35.320000000   4.187000000
  H    0.902000000  35.901000000   3.362000000
  C    1.753000000  34.112000000   4.152000000
  H    1.289000000  33.351000000   4.783000000
  H   -0.406000000  36.637000000   5.187000000
  H    2.855000000  34.259000000   4.518000000
  H    1.766000000  33.687000000   3.050000000
