14
charge=0
  C   -0.126000000  24.864000000   4.808000000
  H   -1.109000000  25.101000000   5.215000000
  C    0.907000000  25.030000000   5.916000000
  H    0.891000000  26.052000000   6.284000000
  H    0.667000000  24.423000000   6.788000000
  H    1.907000000  24.785000000   5.555000000
  C    0.179000000  25.826000000   3.664000000
  H    1.172000000  25.620000000   3.261000000
  H   -0.543000000  25.669000000   2.865000000
  C    0.106000000  27.292000000   4.061000000
  H    0.129000000  27.917000000   3.172000000
  H   -0.817000000  27.496000000   4.599000000
  H    0.958000000  27.565000000   4.681000000
  H   -0.121000000  23.742000000   4.410000000
