9
charge=0
  C    3.290000000  27.077000000  14.927000000
  O    2.880000000  27.331000000  13.797000000
  N    2.945000000  27.792000000  15.994000000
  H    3.364000000  27.603000000  16.892000000
  C    2.086000000  28.968000000  15.853000000
  H    1.572000000  28.956000000  14.894000000
  H    4.006000000  26.168000000  15.097000000
  H    2.711000000  29.958000000  15.845000000
  H    1.272000000  29.006000000  16.705000000
