9
charge=0
  C    2.902000000  30.260000000  15.843000000
  O    2.362000000  31.356000000  16.024000000
  N    4.208000000  30.118000000  15.638000000
  H    4.592000000  29.189000000  15.505000000
  C    5.118000000  31.254000000  15.568000000
  H    4.575000000  32.196000000  15.652000000
  H    2.277000000  29.270000000  15.851000000
  H    5.625000000  31.213000000  14.510000000
  H    5.922000000  31.192000000  16.430000000
