17
charge=+1
  C   10.439000000  24.222000000  10.279000000
  H    9.483000000  23.704000000  10.184000000
  H   10.243000000  25.294000000  10.241000000
  C   11.325000000  23.837000000   9.097000000
  H   12.223000000  24.457000000   9.093000000
  H   11.619000000  22.791000000   9.197000000
  C   10.591000000  24.023000000   7.765000000
  H    9.706000000  23.383000000   7.773000000
  H   10.274000000  25.035000000   7.618000000
  C   11.469000000  23.627000000   6.583000000
  H   12.379000000  24.234000000   6.592000000
  H   11.768000000  22.581000000   6.706000000
  N   10.754000000  23.794000000   5.282000000
  H    9.912000000  23.235000000   5.258000000
  H   10.490000000  24.753000000   5.108000000
  H   11.338000000  23.487000000   4.516000000
  H   10.896000000  23.948000000  11.332000000
