9
charge=0
  C   10.388000000  24.014000000  13.991000000
  O   11.380000000  23.377000000  14.348000000
  N   10.139000000  24.304000000  12.716000000
  H    9.308000000  24.847000000  12.483000000
  C   11.033000000  23.866000000  11.648000000
  H   11.155000000  22.782000000  11.705000000
  H    9.616000000  24.406000000  14.775000000
  H   12.099000000  24.334000000  11.744000000
  H   10.576000000  24.140000000  10.595000000
