12
charge=0
  C   10.026000000  28.892000000   7.855000000
  H   10.321000000  28.896000000   6.806000000
  H   10.412000000  29.813000000   8.293000000
  C   10.708000000  27.706000000   8.527000000
  H   10.712000000  27.867000000   9.604000000
  H   10.114000000  26.837000000   8.333000000
  C   12.149000000  27.539000000   8.051000000
  O   13.096000000  27.714000000   8.961000000
  N   12.403000000  27.265000000   6.868000000
  H   11.672000000  27.203000000   6.180000000
  H   13.371000000  27.142000000   6.605000000
  H    8.847000000  28.906000000   7.893000000
