9
charge=0
  C   -6.110000000  35.519000000   5.497000000
  O   -6.278000000  36.660000000   5.921000000
  N   -4.978000000  34.841000000   5.660000000
  H   -4.901000000  33.904000000   5.276000000
  C   -3.844000000  35.400000000   6.385000000
  H   -4.131000000  36.330000000   6.871000000
  H   -6.959000000  34.970000000   4.916000000
  H   -2.926000000  35.622000000   5.701000000
  H   -3.500000000  34.645000000   7.224000000
