9
charge=0
  C   23.313000000  42.129000000   9.467000000
  O   22.382000000  42.827000000   9.879000000
  N   24.214000000  42.559000000   8.586000000
  H   24.982000000  41.961000000   8.315000000
  C   24.153000000  43.909000000   8.067000000
  H   24.184000000  44.608000000   8.899000000
  H   24.981000000  44.104000000   7.388000000
  H   23.442000000  41.032000000   9.842000000
  H   23.145000000  44.072000000   7.528000000
