9
charge=0
  C   18.763000000  43.677000000   9.308000000
  O   17.625000000  44.094000000   9.519000000
  N   19.853000000  44.284000000   9.777000000
  H   20.761000000  43.875000000   9.575000000
  C   19.797000000  45.496000000  10.603000000
  H   19.083000000  45.328000000  11.411000000
  H   18.929000000  42.696000000   8.676000000
  H   19.439000000  46.446000000  10.021000000
  H   20.850000000  45.700000000  11.080000000
