9
charge=0
  C   26.349000000  46.688000000  27.455000000
  O   26.932000000  45.949000000  28.244000000
  N   26.989000000  47.481000000  26.604000000
  H   26.473000000  48.127000000  26.017000000
  C   28.447000000  47.509000000  26.528000000
  H   28.836000000  46.504000000  26.694000000
  H   25.180000000  46.727000000  27.434000000
  H   28.937000000  48.199000000  27.331000000
  H   28.783000000  47.853000000  25.465000000
