7
charge=-1
  C   32.486000000  39.846000000  20.755000000
  H   31.783000000  39.864000000  21.580000000
  H   32.967000000  40.809000000  20.698000000
  C   31.656000000  39.658000000  19.482000000
  O   31.326000000  38.507000000  19.115000000
  O   31.313000000  40.680000000  18.852000000
  H   33.301000000  38.999000000  20.911000000
