11
charge=0
  C   22.181000000  41.574000000  16.581000000
  H   21.671000000  41.205000000  15.695000000
  C   22.007000000  43.084000000  16.633000000
  H   22.473000000  43.535000000  15.756000000
  H   20.949000000  43.352000000  16.613000000
  H   22.479000000  43.491000000  17.523000000
  C   23.656000000  41.224000000  16.494000000
  H   24.118000000  41.776000000  15.676000000
  H   24.164000000  41.486000000  17.424000000
  H   23.790000000  40.160000000  16.295000000
  H   21.703000000  41.062000000  17.553000000
