9
charge=0
  C   29.688000000  43.503000000   5.659000000
  O   29.066000000  44.387000000   5.075000000
  N   29.876000000  42.294000000   5.126000000
  H   30.268000000  41.544000000   5.672000000
  C   29.335000000  41.994000000   3.803000000
  H   29.832000000  42.643000000   3.075000000
  H   30.129000000  43.725000000   6.714000000
  H   28.186000000  42.206000000   3.773000000
  H   29.537000000  40.876000000   3.481000000
