9
charge=0
  C   25.969000000  49.287000000  22.094000000
  O   27.112000000  49.008000000  22.480000000
  N   25.261000000  50.264000000  22.650000000
  H   24.319000000  50.439000000  22.331000000
  C   25.855000000  51.058000000  23.714000000
  H   26.946000000  51.065000000  23.635000000
  H   25.471000000  48.677000000  21.222000000
  H   25.642000000  50.694000000  24.804000000
  H   25.528000000  52.186000000  23.617000000
