9
charge=0
  C   34.624000000  43.493000000  13.526000000
  O   34.156000000  42.351000000  13.512000000
  N   33.900000000  44.590000000  13.312000000
  H   34.350000000  45.490000000  13.424000000
  C   32.450000000  44.531000000  13.137000000
  H   32.129000000  43.493000000  13.222000000
  H   35.755000000  43.664000000  13.722000000
  H   31.953000000  44.907000000  12.147000000
  H   31.956000000  45.095000000  14.042000000
