14
charge=0
  C   25.884000000  44.835000000   2.428000000
  H   26.437000000  45.157000000   1.544000000
  H   24.831000000  45.091000000   2.266000000
  C   26.414000000  45.593000000   3.656000000
  H   27.429000000  45.305000000   3.835000000
  C   26.460000000  47.097000000   3.392000000
  H   26.897000000  47.609000000   4.250000000
  H   27.069000000  47.296000000   2.514000000
  H   25.447000000  47.466000000   3.234000000
  C   25.532000000  45.291000000   4.858000000
  H   25.784000000  45.965000000   5.678000000
  H   24.477000000  45.414000000   4.609000000
  H   25.725000000  44.278000000   5.195000000
  H   25.985000000  43.664000000   2.529000000
