19
charge=+1
  C   30.590000000  41.196000000  10.765000000
  H   31.482000000  41.826000000  10.796000000
  H   29.749000000  41.778000000  11.146000000
  C   30.774000000  40.003000000  11.672000000
  H   29.856000000  39.414000000  11.655000000
  H   31.605000000  39.384000000  11.330000000
  C   31.030000000  40.444000000  13.084000000
  H   32.021000000  40.899000000  13.123000000
  H   30.322000000  41.192000000  13.392000000
  N   31.007000000  39.306000000  13.984000000
  H   30.976000000  38.375000000  13.589000000
  C   31.016000000  39.398000000  15.308000000
  N   31.050000000  40.592000000  15.894000000
  H   31.161000000  41.442000000  15.368000000
  H   31.118000000  40.638000000  16.913000000
  N   30.971000000  38.290000000  16.041000000
  H   30.872000000  37.396000000  15.581000000
  H   31.001000000  38.358000000  17.060000000
  H   30.364000000  40.891000000   9.660000000
