9
charge=0
  C   11.627000000  -2.082000000  13.698000000
  O   11.189000000  -2.027000000  12.552000000
  N   12.844000000  -1.661000000  14.034000000
  H   13.107000000  -1.637000000  15.014000000
  C   13.775000000  -1.115000000  13.062000000
  H   13.293000000  -0.259000000  12.594000000
  H   10.976000000  -2.524000000  14.560000000
  H   14.047000000  -1.879000000  12.215000000
  H   14.770000000  -0.771000000  13.594000000
