12
charge=0
  C    9.962000000  -1.540000000  15.476000000
  H   10.658000000  -0.821000000  15.903000000
  H    9.371000000  -1.028000000  14.715000000
  C    9.043000000  -2.011000000  16.594000000
  H    9.618000000  -2.554000000  17.340000000
  H    8.606000000  -1.142000000  17.087000000
  S    7.718000000  -3.086000000  16.015000000
  C    6.530000000  -1.875000000  15.390000000
  H    5.642000000  -2.367000000  15.008000000
  H    6.240000000  -1.206000000  16.199000000
  H    6.979000000  -1.290000000  14.588000000
  H   10.590000000  -2.400000000  14.974000000
