14
charge=0
  C   15.068000000  -0.668000000  13.754000000
  H   14.798000000   0.032000000  14.539000000
  H   15.568000000  -1.523000000  14.196000000
  C   16.085000000   0.081000000  12.877000000
  H   16.515000000  -0.610000000  12.155000000
  C   15.393000000   1.224000000  12.121000000
  H   16.146000000   1.837000000  11.624000000
  H   14.725000000   0.840000000  11.352000000
  H   14.834000000   1.853000000  12.813000000
  C   17.217000000   0.629000000  13.766000000
  H   17.675000000  -0.191000000  14.319000000
  H   17.979000000   1.100000000  13.146000000
  H   16.824000000   1.363000000  14.471000000
  H   14.073000000  -1.012000000  13.222000000
