9
charge=0
  C   12.844000000   8.343000000  16.571000000
  O   11.758000000   7.893000000  16.919000000
  N   13.969000000   8.093000000  17.238000000
  H   14.851000000   8.426000000  16.864000000
  C   13.950000000   7.291000000  18.471000000
  H   13.652000000   6.267000000  18.237000000
  H   12.917000000   9.031000000  15.627000000
  H   13.195000000   7.696000000  19.262000000
  H   15.012000000   7.257000000  18.966000000
