9
charge=0
  C   17.211000000  11.167000000  13.421000000
  O   16.043000000  10.955000000  13.754000000
  N   18.184000000  10.283000000  13.616000000
  H   19.101000000  10.461000000  13.209000000
  C   17.918000000   8.989000000  14.235000000
  H   17.090000000   8.500000000  13.717000000
  H   17.516000000  12.174000000  12.921000000
  H   17.605000000   9.124000000  15.354000000
  H   18.870000000   8.304000000  14.155000000
