14
charge=0
  C    7.428000000   1.760000000  22.250000000
  H    7.983000000   2.580000000  22.696000000
  C    7.486000000   0.557000000  23.157000000
  H    8.487000000   0.127000000  23.176000000
  H    7.246000000   0.838000000  24.183000000
  H    6.780000000  -0.211000000  22.835000000
  C    8.037000000   1.435000000  20.886000000
  H    7.655000000   0.470000000  20.553000000
  H    7.724000000   2.152000000  20.132000000
  C    9.552000000   1.399000000  20.849000000
  H    9.945000000   0.757000000  21.629000000
  H    9.885000000   1.032000000  19.877000000
  H    9.943000000   2.406000000  20.999000000
  H    6.303000000   2.102000000  22.106000000
