14
charge=0
  C   13.915000000   1.264000000  19.236000000
  H   14.664000000   0.966000000  19.967000000
  C   14.650000000   1.914000000  18.068000000
  H   15.161000000   2.819000000  18.391000000
  H   15.437000000   1.268000000  17.679000000
  H   13.952000000   2.169000000  17.269000000
  C   12.943000000   2.256000000  19.883000000
  H   12.219000000   2.575000000  19.134000000
  H   12.384000000   1.767000000  20.669000000
  C   13.598000000   3.498000000  20.464000000
  H   14.399000000   3.217000000  21.149000000
  H   13.990000000   4.140000000  19.677000000
  H   12.849000000   4.064000000  21.012000000
  H   13.313000000   0.299000000  18.862000000
