14
charge=0
  C   22.712000000  11.101000000   9.346000000
  H   23.737000000  11.093000000   9.727000000
  C   22.177000000   9.689000000   9.454000000
  H   21.141000000   9.650000000   9.116000000
  H   22.773000000   8.999000000   8.859000000
  H   22.240000000   9.311000000  10.474000000
  C   22.717000000  11.563000000   7.885000000
  H   21.689000000  11.619000000   7.521000000
  H   23.145000000  12.564000000   7.822000000
  C   23.496000000  10.672000000   6.947000000
  H   23.006000000   9.710000000   6.810000000
  H   23.561000000  11.159000000   5.978000000
  H   24.509000000  10.531000000   7.317000000
  H   22.050000000  11.846000000  10.001000000
