12
charge=0
  C   23.217000000   2.588000000  11.193000000
  H   23.967000000   2.814000000  10.432000000
  H   22.524000000   1.867000000  10.751000000
  C   22.423000000   3.854000000  11.510000000
  H   23.077000000   4.549000000  12.017000000
  H   22.113000000   4.323000000  10.575000000
  S   20.928000000   3.599000000  12.543000000
  C   19.816000000   2.920000000  11.366000000
  H   19.737000000   3.581000000  10.507000000
  H   20.183000000   1.950000000  11.033000000
  H   18.833000000   2.797000000  11.820000000
  H   23.742000000   2.093000000  12.129000000
