9
charge=0
  C    8.691000000   8.007000000  18.706000000
  O    7.546000000   7.719000000  19.039000000
  N    9.622000000   7.093000000  18.454000000
  H   10.533000000   7.387000000  18.122000000
  C    9.352000000   5.667000000  18.625000000
  H    8.456000000   5.400000000  18.061000000
  H    9.011000000   9.127000000  18.594000000
  H    9.150000000   5.426000000  19.747000000
  H   10.256000000   5.024000000  18.230000000
