19
charge=+1
  C   13.422000000   8.420000000  14.131000000
  H   14.409000000   8.762000000  13.813000000
  H   13.531000000   7.373000000  14.417000000
  C   12.475000000   8.471000000  12.936000000
  H   12.942000000   7.950000000  12.099000000
  H   11.606000000   7.892000000  13.213000000
  C   12.227000000   9.914000000  12.524000000
  H   11.948000000  10.458000000  13.408000000
  H   13.133000000  10.334000000  12.090000000
  N   11.066000000  10.096000000  11.650000000
  H   11.218000000  10.552000000  10.762000000
  C    9.833000000   9.673000000  11.928000000
  N    9.584000000   9.025000000  13.063000000
  H   10.291000000   8.944000000  13.764000000
  H    8.632000000   8.782000000  13.288000000
  N    8.841000000   9.918000000  11.081000000
  H    9.003000000  10.468000000  10.254000000
  H    7.901000000   9.645000000  11.309000000
  H   13.050000000   9.051000000  15.061000000
