15
charge=0
  C    3.571000000   0.899000000  14.802000000
  H    3.033000000   0.069000000  14.341000000
  H    4.478000000   1.064000000  14.218000000
  C    3.969000000   0.487000000  16.204000000
  C    3.505000000  -0.698000000  16.747000000
  H    2.865000000  -1.344000000  16.162000000
  C    3.846000000  -1.068000000  18.043000000
  H    3.460000000  -1.983000000  18.463000000
  C    4.658000000  -0.248000000  18.807000000
  H    4.914000000  -0.531000000  19.819000000
  C    5.126000000   0.931000000  18.274000000
  H    5.733000000   1.589000000  18.876000000
  C    4.783000000   1.295000000  16.977000000
  H    5.133000000   2.237000000  16.580000000
  H    2.903000000   1.872000000  14.758000000
