10
charge=-1
  C   23.745000000  42.332000000  -2.459000000
  H   24.362000000  41.851000000  -3.216000000
  H   23.651000000  43.390000000  -2.707000000
  C   24.437000000  42.208000000  -1.106000000
  H   23.760000000  42.557000000  -0.327000000
  H   24.706000000  41.168000000  -0.919000000
  C   25.712000000  43.082000000  -1.050000000
  O   26.035000000  43.722000000  -2.104000000
  O   26.386000000  43.118000000   0.019000000
  H   22.638000000  41.877000000  -2.473000000
