7
charge=-1
  C   29.720000000  53.729000000  -1.782000000
  H   29.197000000  54.223000000  -2.590000000
  H   30.777000000  53.644000000  -2.046000000
  C   29.100000000  52.328000000  -1.621000000
  O   29.439000000  51.434000000  -2.417000000
  O   28.290000000  52.130000000  -0.683000000
  H   29.618000000  54.410000000  -0.816000000
