19
charge=0
  C   20.776000000  51.091000000  -1.989000000
  H   21.243000000  50.794000000  -1.047000000
  H   20.151000000  50.280000000  -2.347000000
  C   21.835000000  51.336000000  -3.057000000
  C   21.756000000  50.985000000  -4.374000000
  H   20.963000000  50.441000000  -4.812000000
  N   22.913000000  51.385000000  -5.039000000
  H   23.096000000  51.247000000  -6.027000000
  C   23.730000000  52.039000000  -4.142000000
  C   25.021000000  52.624000000  -4.330000000
  H   25.508000000  52.579000000  -5.292000000
  C   25.622000000  53.184000000  -3.247000000
  H   26.647000000  53.518000000  -3.270000000
  C   25.008000000  53.182000000  -1.963000000
  H   25.552000000  53.603000000  -1.132000000
  C   23.749000000  52.589000000  -1.769000000
  H   23.306000000  52.585000000  -0.792000000
  C   23.096000000  52.000000000  -2.880000000
  H   20.081000000  52.026000000  -1.809000000
