19
charge=0
  C   26.282000000  44.088000000   5.471000000
  H   25.619000000  43.533000000   4.799000000
  H   25.673000000  44.886000000   5.895000000
  C   27.314000000  44.801000000   4.637000000
  C   27.751000000  44.422000000   3.414000000
  H   27.412000000  43.542000000   2.884000000
  N   28.654000000  45.337000000   2.922000000
  H   29.050000000  45.296000000   1.992000000
  C   28.786000000  46.353000000   3.824000000
  C   29.540000000  47.507000000   3.753000000
  H   30.157000000  47.679000000   2.899000000
  C   29.483000000  48.357000000   4.806000000
  H   30.081000000  49.257000000   4.788000000
  C   28.683000000  48.108000000   5.905000000
  H   28.669000000  48.819000000   6.719000000
  C   27.904000000  46.976000000   5.975000000
  H   27.267000000  46.790000000   6.830000000
  C   27.964000000  46.059000000   4.916000000
  H   26.596000000  43.355000000   6.352000000
