9
charge=0
  C   30.783000000  54.784000000   1.603000000
  O   30.625000000  55.985000000   1.604000000
  N   30.256000000  53.999000000   0.668000000
  H   30.370000000  52.997000000   0.720000000
  C   29.587000000  54.614000000  -0.526000000
  H   30.215000000  55.457000000  -0.776000000
  H   31.378000000  54.280000000   2.485000000
  H   28.481000000  55.014000000  -0.302000000
  H   29.689000000  53.933000000  -1.492000000
