9
charge=0
  C   33.586000000  -3.997000000  35.972000000
  O   33.913000000  -4.170000000  34.779000000
  N   34.032000000  -4.774000000  36.974000000
  H   33.816000000  -4.521000000  37.933000000
  C   34.897000000  -5.927000000  36.720000000
  H   35.810000000  -5.586000000  36.228000000
  H   32.852000000  -3.122000000  36.275000000
  H   34.363000000  -6.680000000  36.002000000
  H   35.185000000  -6.488000000  37.742000000
