14
charge=0
  C   42.950000000 -13.507000000  43.111000000
  H   43.179000000 -14.532000000  42.853000000
  H   42.507000000 -13.540000000  44.100000000
  C   41.809000000 -12.966000000  42.229000000
  H   42.143000000 -12.964000000  41.190000000
  C   40.571000000 -13.912000000  42.320000000
  H   40.147000000 -13.873000000  43.325000000
  H   39.815000000 -13.598000000  41.600000000
  H   40.870000000 -14.937000000  42.100000000
  C   41.439000000 -11.512000000  42.622000000
  H   42.123000000 -10.806000000  42.153000000
  H   40.415000000 -11.303000000  42.320000000
  H   41.486000000 -11.397000000  43.705000000
  H   43.920000000 -12.835000000  43.173000000
