9
charge=0
  C   45.134000000 -11.980000000  38.710000000
  H   44.421000000 -12.801000000  38.707000000
  H   44.539000000 -11.071000000  38.791000000
  C   45.891000000 -11.888000000  37.435000000
  O   46.412000000 -10.708000000  37.172000000
  N   46.065000000 -12.879000000  36.709000000
  H   45.676000000 -13.766000000  37.005000000
  H   46.598000000 -12.777000000  35.858000000
  H   45.848000000 -12.032000000  39.640000000
