9
charge=0
  C   46.775000000 -18.389000000  37.107000000
  O   47.398000000 -17.631000000  37.857000000
  N   45.749000000 -17.970000000  36.366000000
  H   45.278000000 -18.629000000  35.750000000
  C   45.264000000 -16.591000000  36.411000000
  H   46.099000000 -15.925000000  36.187000000
  H   47.051000000 -19.545000000  37.041000000
  H   44.842000000 -16.275000000  37.451000000
  H   44.425000000 -16.417000000  35.596000000
