9
charge=0
  C   40.921000000  -2.880000000  43.574000000
  O   40.716000000  -3.341000000  44.698000000
  N   39.938000000  -2.420000000  42.801000000
  H   40.169000000  -2.087000000  41.876000000
  C   38.532000000  -2.386000000  43.222000000
  H   38.449000000  -1.759000000  44.102000000
  H   37.934000000  -1.950000000  42.420000000
  H   42.014000000  -2.846000000  43.119000000
  H   38.039000000  -3.404000000  43.516000000
