11
charge=0
  C   43.435000000  -2.622000000  44.096000000
  H   43.241000000  -3.289000000  44.935000000
  C   44.856000000  -2.976000000  43.543000000
  H   45.134000000  -2.305000000  42.728000000
  H   45.587000000  -2.876000000  44.346000000
  H   44.868000000  -4.005000000  43.183000000
  C   43.405000000  -1.177000000  44.592000000
  H   44.159000000  -1.035000000  45.368000000
  H   43.612000000  -0.485000000  43.774000000
  H   42.429000000  -0.972000000  45.012000000
  H   42.598000000  -2.787000000  43.238000000
