14
charge=0
  C   37.360000000 -13.648000000  29.311000000
  H   37.007000000 -12.905000000  28.594000000
  C   37.914000000 -12.874000000  30.510000000
  H   38.417000000 -13.540000000  31.203000000
  H   38.637000000 -12.132000000  30.170000000
  H   37.119000000 -12.344000000  31.033000000
  C   38.443000000 -14.475000000  28.582000000
  H   39.010000000 -15.054000000  29.316000000
  H   37.977000000 -15.164000000  27.877000000
  C   39.412000000 -13.581000000  27.794000000
  H   39.920000000 -12.884000000  28.459000000
  H   40.168000000 -14.217000000  27.328000000
  H   38.874000000 -13.028000000  27.024000000
  H   36.409000000 -14.303000000  29.608000000
