9
charge=0
  C   34.006000000 -14.844000000  37.106000000
  H   33.604000000 -13.903000000  36.728000000
  C   34.457000000 -14.631000000  38.586000000
  H   35.308000000 -13.951000000  38.622000000
  H   33.640000000 -14.192000000  39.153000000
  H   34.732000000 -15.589000000  39.024000000
  O   35.151000000 -15.202000000  36.330000000
  H   35.532000000 -14.361000000  36.039000000
  H   33.171000000 -15.700000000  36.989000000
