9
charge=0
  C   45.260000000 -11.712000000  41.180000000
  O   44.880000000 -10.551000000  41.405000000
  N   44.985000000 -12.750000000  41.966000000
  H   45.242000000 -13.683000000  41.659000000
  C   44.211000000 -12.633000000  43.191000000
  H   43.902000000 -11.597000000  43.328000000
  H   45.875000000 -11.969000000  40.213000000
  H   44.814000000 -12.872000000  44.172000000
  H   43.241000000 -13.305000000  43.129000000
