9
charge=0
  C   37.889000000  -3.714000000  43.606000000
  O   36.851000000  -3.741000000  44.294000000
  N   38.468000000  -4.823000000  43.147000000
  H   39.338000000  -4.759000000  42.630000000
  C   38.006000000  -6.154000000  43.604000000
  H   37.009000000  -6.358000000  43.212000000
  H   38.382000000  -2.696000000  43.312000000
  H   37.942000000  -6.188000000  44.773000000
  H   38.755000000  -6.989000000  43.219000000
