10
charge=-1
  C   44.173000000 -16.365000000  35.351000000
  H   43.452000000 -17.175000000  35.394000000
  H   43.651000000 -15.436000000  35.586000000
  C   44.727000000 -16.227000000  33.935000000
  H   45.448000000 -15.407000000  33.923000000
  H   45.259000000 -17.135000000  33.656000000
  C   43.631000000 -15.951000000  32.923000000
  O   42.655000000 -16.711000000  32.854000000
  O   43.757000000 -14.964000000  32.179000000
  H   45.012000000 -16.539000000  36.166000000
