15
charge=0
  C   38.980000000  -7.239000000  43.103000000
  H   38.906000000  -7.303000000  42.020000000
  H   40.000000000  -6.950000000  43.361000000
  C   38.729000000  -8.601000000  43.685000000
  C   37.687000000  -9.391000000  43.201000000
  H   37.062000000  -9.023000000  42.401000000
  C   37.459000000 -10.675000000  43.714000000
  H   36.676000000 -11.299000000  43.310000000
  C   38.257000000 -11.158000000  44.735000000
  H   38.089000000 -12.148000000  45.133000000
  C   39.283000000 -10.350000000  45.270000000
  H   39.899000000 -10.736000000  46.069000000
  C   39.526000000  -9.091000000  44.738000000
  H   40.327000000  -8.488000000  45.138000000
  H   38.231000000  -6.404000000  43.488000000
