7
charge=-1
  C   30.212000000 -11.601000000  34.428000000
  H   30.155000000 -11.167000000  33.428000000
  H   29.981000000 -10.831000000  35.155000000
  C   31.601000000 -12.145000000  34.684000000
  O   32.126000000 -11.950000000  35.820000000
  O   32.145000000 -12.821000000  33.771000000
  H   29.375000000 -12.443000000  34.542000000
