9
charge=0
  C   15.555000000  -4.881000000  35.763000000
  O   14.300000000  -4.839000000  35.817000000
  N   16.279000000  -4.215000000  34.846000000
  H   17.292000000  -4.284000000  34.876000000
  C   15.672000000  -3.203000000  33.946000000
  H   14.593000000  -3.208000000  34.100000000
  H   16.162000000  -5.541000000  36.540000000
  H   15.806000000  -3.352000000  32.768000000
  H   16.049000000  -2.123000000  34.258000000
