11
charge=0
  C    7.170000000  -0.598000000  41.934000000
  H    7.347000000  -0.365000000  42.974000000
  C    8.187000000   0.220000000  41.108000000
  H    8.051000000   1.283000000  41.309000000
  H    9.203000000  -0.062000000  41.387000000
  H    8.048000000   0.041000000  40.041000000
  C    5.698000000  -0.229000000  41.584000000
  H    5.010000000  -0.782000000  42.225000000
  H    5.535000000   0.832000000  41.772000000
  H    5.476000000  -0.442000000  40.532000000
  H    7.358000000  -1.769000000  41.813000000
