9
charge=0
  C    9.914000000  -1.633000000  34.710000000
  O    9.314000000  -2.574000000  34.153000000
  N   10.372000000  -1.678000000  35.968000000
  H   10.739000000  -0.822000000  36.382000000
  C   10.246000000  -2.863000000  36.822000000
  H   10.402000000  -3.767000000  36.230000000
  H   10.072000000  -0.625000000  34.144000000
  H    9.151000000  -2.901000000  37.295000000
  H   11.061000000  -2.831000000  37.700000000
