9
charge=0
  C    8.294000000   0.939000000  34.995000000
  O    7.413000000   0.197000000  34.569000000
  N    9.586000000   0.749000000  34.782000000
  H   10.224000000   1.387000000  35.266000000
  C   10.120000000  -0.318000000  33.972000000
  H    9.578000000  -0.390000000  33.026000000
  H    8.043000000   1.901000000  35.607000000
  H    9.962000000  -1.326000000  34.538000000
  H   11.272000000  -0.093000000  33.760000000
