19
charge=+1
  C   24.415000000  -0.539000000  35.413000000
  H   24.507000000   0.508000000  35.116000000
  H   23.822000000  -0.559000000  36.328000000
  C   25.837000000  -1.127000000  35.712000000
  H   25.760000000  -1.903000000  36.478000000
  H   26.220000000  -1.590000000  34.807000000
  C   26.873000000  -0.085000000  36.133000000
  H   26.709000000   0.848000000  35.588000000
  H   26.778000000   0.051000000  37.198000000
  N   28.247000000  -0.550000000  35.915000000
  H   28.622000000  -0.467000000  34.979000000
  C   29.049000000  -1.078000000  36.848000000
  N   28.650000000  -1.224000000  38.118000000
  H   27.716000000  -0.989000000  38.398000000
  H   29.289000000  -1.605000000  38.797000000
  N   30.281000000  -1.470000000  36.501000000
  H   30.601000000  -1.388000000  35.547000000
  H   30.905000000  -1.839000000  37.197000000
  H   23.886000000  -1.140000000  34.541000000
