9
charge=0
  C   12.438000000   6.860000000  41.214000000
  O   11.275000000   6.740000000  41.574000000
  N   13.466000000   6.989000000  42.066000000
  H   14.404000000   7.003000000  41.689000000
  C   13.294000000   6.908000000  43.503000000
  H   12.836000000   5.951000000  43.749000000
  H   14.268000000   6.970000000  43.987000000
  H   12.677000000   6.898000000  40.078000000
  H   12.606000000   7.730000000  43.954000000
