9
charge=0
  C   17.659000000   8.445000000  38.688000000
  O   16.802000000   7.567000000  38.779000000
  N   18.898000000   8.257000000  38.203000000
  H   19.492000000   9.075000000  38.090000000
  C   19.462000000   6.925000000  37.908000000
  H   20.541000000   7.063000000  37.838000000
  H   17.412000000   9.528000000  39.022000000
  H   19.143000000   6.474000000  36.879000000
  H   19.255000000   6.164000000  38.793000000
