16
charge=0
  C   16.162000000  -1.799000000  34.351000000
  H   17.222000000  -1.723000000  34.106000000
  H   15.642000000  -1.051000000  33.756000000
  C   15.970000000  -1.429000000  35.834000000
  C   14.706000000  -1.200000000  36.365000000
  H   13.838000000  -1.306000000  35.732000000
  C   14.535000000  -0.846000000  37.711000000
  H   13.547000000  -0.678000000  38.100000000
  C   15.639000000  -0.694000000  38.549000000
  O   15.467000000  -0.336000000  39.881000000
  H   16.320000000  -0.174000000  40.302000000
  C   16.912000000  -0.899000000  38.035000000
  H   17.783000000  -0.780000000  38.664000000
  C   17.070000000  -1.261000000  36.682000000
  H   18.067000000  -1.414000000  36.292000000
  H   15.785000000  -2.879000000  34.039000000
