14
charge=0
  C   11.618000000  -0.026000000  33.697000000
  H   12.090000000   0.215000000  34.652000000
  C   12.363000000  -1.248000000  33.125000000
  H   13.432000000  -1.047000000  33.115000000
  H   12.208000000  -2.144000000  33.725000000
  H   12.049000000  -1.426000000  32.094000000
  C   11.749000000   1.203000000  32.789000000
  H   11.330000000   0.979000000  31.807000000
  H   11.184000000   2.034000000  33.212000000
  C   13.212000000   1.689000000  32.621000000
  H   13.218000000   2.640000000  32.088000000
  H   13.678000000   1.826000000  33.596000000
  H   13.776000000   0.961000000  32.042000000
  H   10.466000000  -0.251000000  33.909000000
