14
charge=0
  C   16.149000000   6.988000000  34.374000000
  H   16.092000000   8.012000000  34.731000000
  H   15.946000000   6.992000000  33.298000000
  C   15.088000000   6.117000000  35.093000000
  H   15.552000000   5.670000000  35.974000000
  C   13.881000000   6.910000000  35.637000000
  H   13.329000000   7.363000000  34.814000000
  H   13.223000000   6.240000000  36.186000000
  H   14.224000000   7.689000000  36.316000000
  C   14.647000000   4.962000000  34.181000000
  H   15.507000000   4.350000000  33.906000000
  H   13.926000000   4.334000000  34.701000000
  H   14.183000000   5.355000000  33.276000000
  H   17.224000000   6.559000000  34.592000000
