9
charge=0
  C    8.817000000  -2.912000000  37.439000000
  O    8.113000000  -1.908000000  37.507000000
  N    8.403000000  -4.089000000  37.895000000
  H    9.006000000  -4.899000000  37.827000000
  C    7.125000000  -4.221000000  38.614000000
  H    6.396000000  -3.539000000  38.187000000
  H    9.912000000  -2.874000000  36.966000000
  H    7.311000000  -3.931000000  39.735000000
  H    6.679000000  -5.317000000  38.508000000
