9
charge=0
  C   22.358000000  -1.910000000  34.647000000
  O   21.337000000  -1.583000000  34.033000000
  N   22.388000000  -2.735000000  35.703000000
  H   23.197000000  -2.625000000  36.297000000
  C   21.873000000  -4.126000000  35.679000000
  H   22.768000000  -4.694000000  35.441000000
  H   23.407000000  -1.458000000  34.365000000
  H   21.035000000  -4.409000000  34.906000000
  H   21.581000000  -4.528000000  36.752000000
