9
charge=0
  C    6.734000000   4.130000000  34.919000000
  O    7.557000000   4.914000000  35.333000000
  N    6.773000000   2.832000000  35.198000000
  H    5.990000000   2.242000000  34.912000000
  C    7.966000000   2.194000000  35.793000000
  H    8.809000000   2.877000000  35.695000000
  H    5.833000000   4.497000000  34.281000000
  H    8.217000000   1.232000000  35.181000000
  H    7.829000000   1.959000000  36.942000000
