9
charge=0
  C    8.210000000   7.077000000  42.167000000
  H    8.764000000   6.289000000  42.683000000
  C    6.762000000   6.638000000  42.026000000
  H    6.736000000   5.653000000  41.576000000
  H    6.280000000   6.543000000  42.991000000
  H    6.217000000   7.352000000  41.412000000
  O    8.800000000   7.272000000  40.872000000
  H    9.729000000   6.988000000  40.963000000
  H    8.289000000   8.079000000  42.786000000
