11
charge=0
  C   13.931000000   5.548000000  47.146000000
  H   13.527000000   6.380000000  46.571000000
  C   13.934000000   4.293000000  46.237000000
  H   12.916000000   3.942000000  46.074000000
  H   14.378000000   4.534000000  45.274000000
  H   14.508000000   3.496000000  46.711000000
  C   13.012000000   5.324000000  48.357000000
  H   12.000000000   5.102000000  48.009000000
  H   13.381000000   4.471000000  48.929000000
  H   13.001000000   6.194000000  49.006000000
  H   15.056000000   5.852000000  47.507000000
