9
charge=0
  C   12.397000000   7.981000000  44.092000000
  O   11.760000000   7.772000000  45.134000000
  N   12.377000000   9.142000000  43.432000000
  H   12.898000000   9.216000000  42.570000000
  C   11.538000000  10.253000000  43.842000000
  H   11.753000000  10.498000000  44.871000000
  H   13.085000000   7.159000000  43.641000000
  H   10.406000000   9.966000000  43.798000000
  H   11.738000000  11.198000000  43.158000000
