9
charge=0
  C    8.453000000   1.467000000  48.580000000
  O    8.069000000   2.599000000  48.293000000
  N    8.688000000   0.535000000  47.660000000
  H    8.972000000  -0.396000000  47.954000000
  C    8.411000000   0.783000000  46.233000000
  H    8.723000000   1.799000000  46.005000000
  H    8.616000000   1.176000000  49.704000000
  H    7.275000000   0.685000000  45.954000000
  H    9.046000000   0.060000000  45.557000000
