15
charge=0
  C   10.890000000  21.055000000  26.500000000
  H    9.801000000  21.062000000  26.566000000
  H   11.149000000  20.726000000  25.494000000
  C   11.422000000  20.041000000  27.478000000
  C   10.749000000  19.775000000  28.656000000
  H    9.852000000  20.329000000  28.897000000
  C   11.185000000  18.788000000  29.526000000
  H   10.644000000  18.593000000  30.441000000
  C   12.321000000  18.055000000  29.220000000
  H   12.671000000  17.286000000  29.896000000
  C   13.011000000  18.317000000  28.044000000
  H   13.897000000  17.748000000  27.796000000
  C   12.559000000  19.309000000  27.185000000
  H   13.100000000  19.499000000  26.269000000
  H   11.293000000  22.150000000  26.654000000
