9
charge=0
  C   -0.192000000   9.279000000  20.850000000
  H   -0.564000000  10.139000000  20.293000000
  H   -0.102000000   9.570000000  21.897000000
  C    1.203000000   8.908000000  20.357000000
  O    1.409000000   7.830000000  19.793000000
  N    2.163000000   9.801000000  20.559000000
  H    3.096000000   9.559000000  20.273000000
  H    2.005000000  10.602000000  21.164000000
  H   -0.954000000   8.378000000  20.775000000
