9
charge=0
  C   10.085000000   8.772000000  30.183000000
  O   10.663000000   7.963000000  29.464000000
  N    9.402000000   9.794000000  29.685000000
  H    8.933000000  10.449000000  30.303000000
  C    9.311000000   9.989000000  28.241000000
  H    9.082000000   9.034000000  27.771000000
  H   10.119000000   8.667000000  31.351000000
  H   10.326000000  10.320000000  27.762000000
  H    8.449000000  10.753000000  27.995000000
