9
charge=0
  C   17.318000000  19.274000000  27.266000000
  O   17.347000000  18.269000000  27.973000000
  N   17.041000000  19.241000000  25.966000000
  H   17.070000000  20.100000000  25.432000000
  C   16.826000000  17.993000000  25.262000000
  H   16.154000000  17.344000000  25.826000000
  H   17.520000000  20.330000000  27.725000000
  H   17.867000000  17.480000000  25.148000000
  H   16.402000000  18.191000000  24.179000000
