9
charge=0
  C    4.923000000  10.995000000  16.996000000
  O    4.547000000  11.837000000  16.185000000
  N    4.915000000  11.209000000  18.307000000
  H    5.218000000  10.469000000  18.922000000
  C    4.505000000  12.487000000  18.881000000
  H    3.434000000  12.640000000  18.741000000
  H    5.289000000   9.948000000  16.645000000
  H    5.074000000  13.358000000  18.347000000
  H    4.764000000  12.514000000  20.033000000
