14
charge=0
  C    8.190000000  10.982000000  27.921000000
  H    8.346000000  11.897000000  28.493000000
  H    8.231000000  11.260000000  26.875000000
  C    6.816000000  10.384000000  28.237000000
  H    6.828000000   9.895000000  29.212000000
  C    5.752000000  11.462000000  28.290000000
  H    4.807000000  11.010000000  28.589000000
  H    6.019000000  12.221000000  29.023000000
  H    5.633000000  11.928000000  27.317000000
  C    6.480000000   9.350000000  27.171000000
  H    5.459000000   8.997000000  27.323000000
  H    6.551000000   9.783000000  26.175000000
  H    7.135000000   8.484000000  27.239000000
  H    9.052000000  10.218000000  28.167000000
