14
charge=0
  C   15.154000000  13.860000000  21.602000000
  H   15.049000000  12.846000000  21.994000000
  C   15.770000000  14.749000000  22.676000000
  H   15.178000000  14.648000000  23.583000000
  H   16.780000000  14.426000000  22.910000000
  H   15.747000000  15.779000000  22.343000000
  C   13.766000000  14.393000000  21.225000000
  H   13.142000000  14.352000000  22.118000000
  H   13.805000000  15.440000000  20.927000000
  C   13.065000000  13.584000000  20.154000000
  H   12.044000000  13.944000000  20.055000000
  H   13.548000000  13.716000000  19.194000000
  H   13.048000000  12.528000000  20.424000000
  H   15.854000000  13.827000000  20.629000000
