11
charge=0
  C    9.780000000   9.152000000  18.663000000
  H    9.915000000  10.224000000  18.516000000
  C   10.563000000   8.780000000  19.906000000
  H   10.484000000   7.713000000  20.112000000
  H   11.615000000   9.035000000  19.770000000
  H   10.178000000   9.338000000  20.760000000
  C   10.333000000   8.403000000  17.454000000
  H   11.326000000   8.788000000  17.218000000
  H   10.428000000   7.336000000  17.652000000
  H    9.695000000   8.557000000  16.588000000
  H    8.630000000   8.886000000  18.817000000
