9
charge=0
  C    7.671000000   6.689000000  19.840000000
  O    7.487000000   7.219000000  20.932000000
  N    8.064000000   7.373000000  18.774000000
  H    8.230000000   6.876000000  17.908000000
  C    8.285000000   8.806000000  18.863000000
  H    7.990000000   9.187000000  19.840000000
  H    7.508000000   5.543000000  19.720000000
  H    7.629000000   9.400000000  18.099000000
  H    9.435000000   9.072000000  18.709000000
