7
charge=-1
  C   -7.334000000  11.767000000  24.238000000
  H   -7.782000000  10.779000000  24.360000000
  H   -7.182000000  11.932000000  23.171000000
  C   -6.000000000  11.798000000  24.966000000
  O   -5.982000000  11.476000000  26.177000000
  O   -4.984000000  12.134000000  24.323000000
  H   -8.098000000  12.583000000  24.633000000
