9
charge=0
  C   13.530000000   7.096000000  26.855000000
  O   14.290000000   6.594000000  26.026000000
  N   12.210000000   7.127000000  26.692000000
  H   11.635000000   7.481000000  27.445000000
  C   11.583000000   6.576000000  25.494000000
  H   11.921000000   5.553000000  25.322000000
  H   13.951000000   7.572000000  27.838000000
  H   11.914000000   7.184000000  24.550000000
  H   10.394000000   6.612000000  25.572000000
