9
charge=0
  C   13.638000000  10.040000000  27.578000000
  O   14.408000000  10.008000000  26.613000000
  N   13.423000000   8.995000000  28.368000000
  H   12.800000000   9.111000000  29.156000000
  C   14.079000000   7.717000000  28.138000000
  H   15.155000000   7.853000000  28.013000000
  H   13.043000000  10.997000000  27.853000000
  H   13.658000000   7.241000000  27.155000000
  H   13.884000000   6.980000000  29.042000000
