9
charge=0
  C    3.299000000  21.810000000  30.412000000
  O    4.200000000  22.338000000  31.064000000
  N    3.516000000  21.052000000  29.339000000
  H    2.723000000  20.631000000  28.878000000
  C    4.841000000  20.824000000  28.764000000
  H    5.624000000  21.165000000  29.431000000
  H    2.184000000  21.927000000  30.739000000
  H    4.821000000  21.433000000  27.772000000
  H    4.983000000  19.680000000  28.519000000
