15
charge=0
  C   16.275000000  18.251000000  23.854000000
  H   16.747000000  19.147000000  23.447000000
  H   16.577000000  17.446000000  23.195000000
  C   14.782000000  18.396000000  23.794000000
  C   13.960000000  17.339000000  24.156000000
  H   14.390000000  16.424000000  24.523000000
  C   12.590000000  17.450000000  24.075000000
  H   11.961000000  16.622000000  24.358000000
  C   12.012000000  18.626000000  23.635000000
  H   10.946000000  18.715000000  23.523000000
  C   12.813000000  19.693000000  23.272000000
  H   12.391000000  20.596000000  22.885000000
  C   14.199000000  19.574000000  23.356000000
  H   14.817000000  20.398000000  23.040000000
  H   16.699000000  18.053000000  24.937000000
