9
charge=0
  C    9.222000000   4.424000000  18.218000000
  O   10.099000000   4.834000000  18.979000000
  N    7.924000000   4.565000000  18.463000000
  H    7.251000000   4.159000000  17.822000000
  C    7.458000000   5.194000000  19.683000000
  H    6.386000000   5.015000000  19.773000000
  H    7.954000000   4.717000000  20.530000000
  H    9.495000000   3.875000000  17.221000000
  H    7.621000000   6.340000000  19.803000000
