9
charge=0
  C   -5.257000000   7.965000000  22.340000000
  O   -5.645000000   7.615000000  23.455000000
  N   -5.412000000   7.229000000  21.245000000
  H   -5.072000000   7.577000000  20.349000000
  C   -6.070000000   5.926000000  21.287000000
  H   -7.097000000   6.040000000  21.637000000
  H   -4.707000000   8.977000000  22.182000000
  H   -5.506000000   5.226000000  22.031000000
  H   -6.086000000   5.435000000  20.214000000
