9
charge=0
  C   -5.250000000  14.079000000  29.358000000
  O   -4.471000000  14.590000000  30.159000000
  N   -5.184000000  14.264000000  28.047000000
  H   -5.885000000  13.835000000  27.448000000
  C   -4.144000000  15.058000000  27.447000000
  H   -3.686000000  15.703000000  28.193000000
  H   -6.115000000  13.401000000  29.727000000
  H   -4.534000000  15.734000000  26.589000000
  H   -3.298000000  14.356000000  27.015000000
