10
charge=-1
  C    0.641000000  31.028000000  30.051000000
  H    1.494000000  30.370000000  29.895000000
  H   -0.031000000  30.545000000  30.762000000
  C   -0.104000000  31.170000000  28.737000000
  H   -1.036000000  31.708000000  28.908000000
  H    0.508000000  31.775000000  28.064000000
  C   -0.379000000  29.794000000  28.058000000
  O   -1.372000000  29.689000000  27.326000000
  O    0.399000000  28.836000000  28.252000000
  H    1.079000000  32.020000000  30.544000000
