12
charge=0
  C   -1.640000000  20.372000000  26.973000000
  H   -1.123000000  19.910000000  26.135000000
  H   -2.479000000  19.719000000  27.197000000
  C   -2.271000000  21.670000000  26.487000000
  H   -1.480000000  22.384000000  26.248000000
  H   -2.817000000  21.473000000  25.567000000
  S   -3.446000000  22.465000000  27.702000000
  C   -4.523000000  21.176000000  28.232000000
  H   -3.981000000  20.491000000  28.877000000
  H   -5.354000000  21.608000000  28.790000000
  H   -4.897000000  20.647000000  27.357000000
  H   -0.935000000  20.484000000  27.922000000
