19
charge=+1
  C    3.885000000  21.912000000  30.530000000
  H    4.558000000  21.640000000  29.737000000
  H    2.860000000  21.678000000  30.237000000
  C    3.990000000  23.430000000  30.811000000
  H    3.527000000  23.626000000  31.781000000
  H    5.035000000  23.738000000  30.856000000
  C    3.259000000  24.237000000  29.749000000
  H    3.806000000  24.198000000  28.805000000
  H    2.254000000  23.832000000  29.614000000
  N    3.170000000  25.585000000  30.219000000
  H    3.790000000  25.845000000  30.977000000
  C    2.399000000  26.534000000  29.713000000
  N    2.417000000  27.753000000  30.242000000
  H    3.020000000  27.963000000  31.020000000
  H    1.822000000  28.455000000  29.812000000
  N    1.625000000  26.301000000  28.678000000
  H    1.537000000  25.376000000  28.262000000
  H    1.053000000  27.078000000  28.356000000
  H    4.195000000  21.237000000  31.452000000
