12
charge=0
  C    2.212000000  29.741000000  17.770000000
  H    2.103000000  30.828000000  17.810000000
  H    1.295000000  29.325000000  17.348000000
  C    2.376000000  29.199000000  19.153000000
  N    3.452000000  29.530000000  19.954000000
  H    4.152000000  30.227000000  19.728000000
  C    3.366000000  28.873000000  21.092000000
  H    4.069000000  28.929000000  21.911000000
  N    2.276000000  28.127000000  21.057000000
  C    1.636000000  28.310000000  19.857000000
  H    0.740000000  27.810000000  19.519000000
  H    3.111000000  29.466000000  17.072000000
