15
charge=0
  C    0.298000000  31.611000000  20.488000000
  H   -0.489000000  30.876000000  20.349000000
  H    1.208000000  31.214000000  20.061000000
  C    0.552000000  31.838000000  21.948000000
  C   -0.514000000  31.846000000  22.876000000
  H   -1.527000000  31.683000000  22.536000000
  C   -0.261000000  32.037000000  24.253000000
  H   -1.047000000  32.004000000  24.966000000
  C    1.099000000  32.228000000  24.707000000
  H    1.307000000  32.360000000  25.759000000
  C    2.130000000  32.220000000  23.794000000
  H    3.150000000  32.326000000  24.137000000
  C    1.863000000  32.030000000  22.422000000
  H    2.683000000  31.918000000  21.742000000
  H    0.054000000  32.606000000  19.906000000
