16
charge=0
  C    6.901000000  24.315000000  21.255000000
  H    7.350000000  25.059000000  21.894000000
  H    7.010000000  24.668000000  20.237000000
  C    5.458000000  24.175000000  21.582000000
  C    4.892000000  24.858000000  22.660000000
  H    5.520000000  25.471000000  23.275000000
  C    3.511000000  24.723000000  22.973000000
  H    3.093000000  25.261000000  23.810000000
  C    2.711000000  23.904000000  22.208000000
  O    1.376000000  23.730000000  22.572000000
  H    1.143000000  24.285000000  23.332000000
  C    3.252000000  23.218000000  21.129000000
  H    2.622000000  22.577000000  20.540000000
  C    4.613000000  23.348000000  20.819000000
  H    4.947000000  22.845000000  19.929000000
  H    7.516000000  23.318000000  21.429000000
