9
charge=0
  C   -1.634000000  34.657000000  20.213000000
  O   -0.720000000  35.490000000  20.346000000
  N   -1.385000000  33.360000000  19.971000000
  H   -2.148000000  32.703000000  19.855000000
  C   -0.019000000  32.904000000  19.731000000
  H    0.644000000  33.671000000  20.077000000
  H   -2.752000000  35.013000000  20.264000000
  H    0.025000000  32.768000000  18.565000000
  H    0.225000000  31.909000000  20.313000000
