11
charge=0
  C   -2.115000000  31.279000000  33.892000000
  H   -1.446000000  31.215000000  33.033000000
  C   -2.126000000  29.874000000  34.593000000
  H   -2.687000000  29.926000000  35.527000000
  H   -2.597000000  29.141000000  33.937000000
  H   -1.109000000  29.541000000  34.791000000
  C   -3.462000000  31.682000000  33.392000000
  H   -3.896000000  30.857000000  32.826000000
  H   -4.123000000  31.909000000  34.232000000
  H   -3.406000000  32.542000000  32.722000000
  H   -1.734000000  32.109000000  34.634000000
