9
charge=0
  C    5.897000000  21.646000000  33.361000000
  O    5.010000000  21.534000000  34.211000000
  N    5.650000000  21.387000000  32.101000000
  H    6.361000000  21.551000000  31.404000000
  C    4.288000000  21.034000000  31.728000000
  H    3.564000000  21.244000000  32.515000000
  H    6.975000000  21.987000000  33.648000000
  H    4.162000000  19.891000000  31.451000000
  H    3.978000000  21.709000000  30.806000000
