9
charge=0
  C   -0.593000000  19.187000000  28.911000000
  O   -1.463000000  18.315000000  28.803000000
  N    0.505000000  19.012000000  29.604000000
  H    1.243000000  19.701000000  29.603000000
  C    0.663000000  17.766000000  30.307000000
  H    1.412000000  17.865000000  31.090000000
  H   -0.273000000  17.464000000  30.779000000
  H   -0.693000000  20.207000000  28.371000000
  H    0.986000000  16.911000000  29.597000000
