12
charge=0
  C   52.319000000   1.086000000  10.663000000
  H   53.386000000   0.884000000  10.756000000
  H   51.813000000   0.638000000  11.518000000
  C   51.793000000   0.397000000   9.399000000
  H   51.923000000  -0.683000000   9.500000000
  H   50.726000000   0.595000000   9.300000000
  S   52.616000000   0.938000000   7.872000000
  C   54.199000000   0.162000000   8.060000000
  H   54.785000000   0.316000000   7.154000000
  H   54.736000000   0.600000000   8.901000000
  H   54.075000000  -0.908000000   8.221000000
  H   52.161000000   2.255000000  10.708000000
