9
charge=0
  C   56.093000000  -6.749000000   5.069000000
  O   57.107000000  -7.199000000   4.520000000
  N   56.109000000  -5.651000000   5.811000000
  H   55.250000000  -5.333000000   6.249000000
  C   57.358000000  -4.920000000   6.031000000
  H   57.783000000  -4.644000000   5.066000000
  H   55.059000000  -7.278000000   4.961000000
  H   58.155000000  -5.585000000   6.569000000
  H   57.177000000  -3.924000000   6.646000000
