9
charge=0
  C   62.072000000   2.040000000   2.804000000
  H   62.598000000   2.259000000   1.877000000
  H   62.772000000   2.143000000   3.630000000
  C   61.591000000   0.614000000   2.802000000
  O   60.465000000   0.337000000   3.227000000
  N   62.431000000  -0.303000000   2.344000000
  H   62.174000000  -1.275000000   2.404000000
  H   63.358000000  -0.030000000   2.034000000
  H   61.184000000   2.797000000   2.965000000
