14
charge=0
  C   59.747000000  -1.740000000  -1.806000000
  H   60.295000000  -2.182000000  -2.640000000
  H   60.364000000  -1.897000000  -0.920000000
  C   58.442000000  -2.521000000  -1.588000000
  H   58.689000000  -3.582000000  -1.581000000
  C   57.819000000  -2.189000000  -0.234000000
  H   58.454000000  -2.487000000   0.588000000
  H   57.652000000  -1.118000000  -0.143000000
  H   56.842000000  -2.654000000  -0.186000000
  C   57.423000000  -2.294000000  -2.731000000
  H   56.547000000  -2.911000000  -2.553000000
  H   57.109000000  -1.251000000  -2.772000000
  H   57.885000000  -2.579000000  -3.682000000
  H   59.619000000  -0.578000000  -1.971000000
