14
charge=0
  C   61.187000000  -3.009000000  10.800000000
  H   62.253000000  -2.958000000  10.556000000
  C   60.628000000  -4.355000000  10.309000000
  H   60.608000000  -4.379000000   9.222000000
  H   61.270000000  -5.182000000  10.614000000
  H   59.614000000  -4.504000000  10.685000000
  C   60.496000000  -1.829000000  10.115000000
  H   59.422000000  -2.018000000  10.071000000
  H   60.639000000  -0.904000000  10.672000000
  C   61.019000000  -1.587000000   8.708000000
  H   60.974000000  -2.489000000   8.105000000
  H   60.433000000  -0.800000000   8.238000000
  H   62.059000000  -1.266000000   8.752000000
  H   61.081000000  -2.920000000  11.966000000
