9
charge=0
  C   59.799000000   4.859000000  -0.796000000
  O   59.658000000   5.870000000  -0.113000000
  N   59.073000000   3.767000000  -0.597000000
  H   59.181000000   2.959000000  -1.204000000
  C   58.112000000   3.711000000   0.510000000
  H   57.501000000   4.613000000   0.514000000
  H   60.592000000   4.832000000  -1.668000000
  H   58.722000000   3.717000000   1.515000000
  H   57.431000000   2.750000000   0.445000000
