9
charge=0
  C   52.690000000  -4.135000000   7.289000000
  O   53.791000000  -4.255000000   6.745000000
  N   52.518000000  -4.261000000   8.607000000
  H   51.623000000  -4.003000000   9.009000000
  C   53.640000000  -4.606000000   9.473000000
  H   54.450000000  -3.887000000   9.342000000
  H   51.733000000  -3.883000000   6.655000000
  H   54.067000000  -5.655000000   9.193000000
  H   53.300000000  -4.629000000  10.595000000
