14
charge=0
  C   51.119000000  -2.308000000   6.493000000
  H   50.644000000  -2.061000000   7.443000000
  H   52.055000000  -1.748000000   6.443000000
  C   50.227000000  -1.844000000   5.329000000
  H   49.357000000  -2.500000000   5.264000000
  C   49.718000000  -0.432000000   5.569000000
  H   49.139000000  -0.103000000   4.713000000
  H   49.078000000  -0.446000000   6.448000000
  H   50.555000000   0.241000000   5.738000000
  C   51.003000000  -1.928000000   3.986000000
  H   50.390000000  -1.528000000   3.178000000
  H   51.930000000  -1.356000000   4.045000000
  H   51.216000000  -2.970000000   3.774000000
  H   51.367000000  -3.460000000   6.469000000
