19
charge=0
  C   54.842000000   4.841000000  13.492000000
  H   55.244000000   5.635000000  14.120000000
  H   55.135000000   3.888000000  13.930000000
  C   55.469000000   4.926000000  12.181000000
  C   55.509000000   6.010000000  11.357000000
  H   55.007000000   6.948000000  11.548000000
  N   56.262000000   5.725000000  10.245000000
  H   56.389000000   6.339000000   9.447000000
  C   56.753000000   4.450000000  10.357000000
  C   57.557000000   3.717000000   9.485000000
  H   57.907000000   4.143000000   8.556000000
  C   57.906000000   2.448000000   9.862000000
  H   58.553000000   1.862000000   9.224000000
  C   57.444000000   1.887000000  11.070000000
  H   57.736000000   0.879000000  11.335000000
  C   56.647000000   2.622000000  11.940000000
  H   56.308000000   2.198000000  12.873000000
  C   56.291000000   3.928000000  11.580000000
  H   53.669000000   4.910000000  13.507000000
