11
charge=0
  C   47.497000000   3.257000000   7.283000000
  H   47.366000000   3.231000000   8.366000000
  C   46.196000000   2.827000000   6.630000000
  H   46.039000000   1.758000000   6.811000000
  H   45.354000000   3.362000000   7.074000000
  H   46.228000000   3.002000000   5.554000000
  C   48.622000000   2.316000000   6.909000000
  H   48.488000000   1.389000000   7.465000000
  H   48.596000000   2.117000000   5.838000000
  H   49.597000000   2.731000000   7.151000000
  H   47.770000000   4.364000000   6.955000000
