12
charge=0
  C   51.718000000  -4.379000000  -0.668000000
  H   51.007000000  -3.589000000  -0.439000000
  H   51.822000000  -4.964000000   0.242000000
  C   53.020000000  -3.688000000  -0.982000000
  H   53.837000000  -4.409000000  -1.005000000
  H   52.962000000  -3.181000000  -1.929000000
  S   53.323000000  -2.419000000   0.303000000
  C   52.972000000  -3.331000000   1.724000000
  H   53.442000000  -2.891000000   2.596000000
  H   51.893000000  -3.342000000   1.851000000
  H   53.291000000  -4.353000000   1.589000000
  H   51.329000000  -5.181000000  -1.444000000
