12
charge=0
  C   55.729000000   9.578000000   7.442000000
  H   56.166000000   8.583000000   7.348000000
  H   54.919000000   9.473000000   8.172000000
  C   55.173000000   9.957000000   6.061000000
  H   55.994000000  10.116000000   5.362000000
  H   54.573000000   9.122000000   5.702000000
  C   54.301000000  11.190000000   6.089000000
  O   53.796000000  11.621000000   5.056000000
  N   54.072000000  11.732000000   7.278000000
  H   53.442000000  12.525000000   7.285000000
  H   54.322000000  11.266000000   8.134000000
  H   56.574000000  10.290000000   7.851000000
