14
charge=0
  C   59.935000000  -6.481000000   2.759000000
  H   58.976000000  -6.825000000   2.366000000
  H   59.710000000  -5.774000000   3.560000000
  C   60.650000000  -5.714000000   1.649000000
  H   61.492000000  -5.175000000   2.069000000
  C   61.178000000  -6.677000000   0.586000000
  H   61.546000000  -6.114000000  -0.261000000
  H   62.001000000  -7.264000000   0.979000000
  H   60.379000000  -7.342000000   0.254000000
  C   59.684000000  -4.694000000   1.030000000
  H   60.213000000  -4.087000000   0.298000000
  H   58.855000000  -5.210000000   0.544000000
  H   59.297000000  -4.058000000   1.825000000
  H   60.473000000  -7.420000000   3.238000000
