9
charge=0
  C   50.313000000  -5.898000000   6.881000000
  O   51.203000000  -6.530000000   6.318000000
  N   50.327000000  -4.568000000   6.981000000
  H   49.516000000  -4.082000000   7.345000000
  C   51.442000000  -3.806000000   6.462000000
  H   51.665000000  -4.132000000   5.448000000
  H   49.403000000  -6.450000000   7.349000000
  H   52.399000000  -4.058000000   7.096000000
  H   51.194000000  -2.654000000   6.486000000
