15
charge=0
  C   17.037000000   2.217000000   0.103000000
  H   18.097000000   2.346000000  -0.113000000
  H   16.533000000   3.081000000  -0.334000000
  C   16.800000000   2.318000000   1.596000000
  C   15.534000000   2.581000000   2.106000000
  H   14.701000000   2.712000000   1.431000000
  C   15.324000000   2.699000000   3.497000000
  H   14.346000000   2.935000000   3.875000000
  C   16.384000000   2.566000000   4.382000000
  H   16.228000000   2.681000000   5.444000000
  C   17.661000000   2.312000000   3.879000000
  H   18.496000000   2.191000000   4.555000000
  C   17.860000000   2.187000000   2.493000000
  H   18.792000000   1.859000000   2.131000000
  H   16.641000000   1.217000000  -0.404000000
