9
charge=0
  C   21.062000000  -2.736000000   7.703000000
  O   21.009000000  -1.593000000   7.218000000
  N   21.504000000  -3.783000000   7.027000000
  H   21.579000000  -4.681000000   7.493000000
  C   21.794000000  -3.712000000   5.609000000
  H   22.130000000  -2.712000000   5.330000000
  H   20.722000000  -2.947000000   8.812000000
  H   20.781000000  -3.937000000   5.052000000
  H   22.625000000  -4.500000000   5.287000000
