14
charge=0
  C   24.927000000 -10.858000000   3.278000000
  H   25.827000000 -10.306000000   3.555000000
  C   24.790000000 -10.782000000   1.753000000
  H   24.783000000  -9.744000000   1.426000000
  H   25.630000000 -11.254000000   1.255000000
  H   23.854000000 -11.247000000   1.447000000
  C   23.713000000 -10.186000000   3.941000000
  H   22.792000000 -10.623000000   3.553000000
  H   23.738000000 -10.375000000   5.012000000
  C   23.668000000  -8.627000000   3.749000000
  H   23.563000000  -8.368000000   2.696000000
  H   22.810000000  -8.221000000   4.284000000
  H   24.577000000  -8.176000000   4.148000000
  H   25.049000000 -11.986000000   3.667000000
