9
charge=0
  C    9.419000000  -3.803000000   8.007000000
  O    8.540000000  -2.985000000   7.883000000
  N   10.260000000  -3.805000000   9.043000000
  H   10.976000000  -4.512000000   9.091000000
  C   10.324000000  -2.698000000   9.998000000
  H    9.355000000  -2.599000000  10.492000000
  H    9.568000000  -4.624000000   7.178000000
  H   10.569000000  -1.700000000   9.450000000
  H   11.150000000  -2.880000000  10.817000000
