9
charge=0
  C   13.104000000 -12.694000000 -10.693000000
  O   13.477000000 -13.230000000  -9.646000000
  N   13.179000000 -11.367000000 -10.911000000
  H   12.971000000 -11.038000000 -11.851000000
  C   13.429000000 -10.352000000  -9.860000000
  H   14.451000000 -10.454000000  -9.495000000
  H   12.676000000 -13.359000000 -11.570000000
  H   12.710000000 -10.404000000  -8.941000000
  H   13.281000000  -9.263000000 -10.313000000
