9
charge=0
  C    8.800000000   7.206000000   0.155000000
  O    9.992000000   7.459000000   0.406000000
  N    8.381000000   6.749000000  -1.026000000
  H    7.392000000   6.641000000  -1.203000000
  C    9.326000000   6.380000000  -2.083000000
  H    9.796000000   7.291000000  -2.458000000
  H   10.125000000   5.761000000  -1.673000000
  H    7.988000000   7.357000000   0.981000000
  H    8.839000000   5.815000000  -2.970000000
