9
charge=0
  C   10.644000000  -1.396000000   9.283000000
  O   11.527000000  -1.369000000   8.418000000
  N    9.944000000  -0.330000000   9.654000000
  H    9.225000000  -0.427000000  10.363000000
  C   10.175000000   0.967000000   9.057000000
  H   10.220000000   0.838000000   7.973000000
  H   10.399000000  -2.394000000   9.831000000
  H   11.200000000   1.393000000   9.421000000
  H    9.311000000   1.708000000   9.306000000
