16
charge=0
  C   12.523000000  -1.471000000  -8.328000000
  H   12.586000000  -0.637000000  -7.639000000
  H   12.488000000  -2.382000000  -7.730000000
  C   13.779000000  -1.507000000  -9.194000000
  C   14.545000000  -2.669000000  -9.306000000
  H   14.257000000  -3.558000000  -8.760000000
  C   15.701000000  -2.705000000 -10.117000000
  H   16.289000000  -3.610000000 -10.189000000
  C   16.084000000  -1.570000000 -10.823000000
  O   17.214000000  -1.585000000 -11.623000000
  H   17.374000000  -0.736000000 -12.048000000
  C   15.334000000  -0.415000000 -10.731000000
  H   15.616000000   0.453000000 -11.307000000
  C   14.189000000  -0.387000000  -9.916000000
  H   13.604000000   0.503000000  -9.885000000
  H   11.515000000  -1.388000000  -8.943000000
