9
charge=0
  C    6.628000000  -0.042000000   7.718000000
  O    6.071000000   1.053000000   7.532000000
  N    7.421000000  -0.643000000   6.825000000
  H    7.852000000  -1.533000000   7.073000000
  C    7.489000000  -0.224000000   5.420000000
  H    6.971000000   0.727000000   5.286000000
  H    6.485000000  -0.612000000   8.723000000
  H    6.969000000  -1.033000000   4.779000000
  H    8.588000000  -0.089000000   5.072000000
