19
charge=+1
  C   15.625000000 -12.747000000  -7.308000000
  H   15.804000000 -13.436000000  -8.130000000
  H   15.139000000 -11.866000000  -7.724000000
  C   16.965000000 -12.293000000  -6.690000000
  H   16.787000000 -11.624000000  -5.853000000
  H   17.483000000 -13.169000000  -6.302000000
  C   17.907000000 -11.562000000  -7.702000000
  H   17.494000000 -10.578000000  -7.921000000
  H   18.885000000 -11.425000000  -7.237000000
  N   18.062000000 -12.360000000  -8.913000000
  H   18.523000000 -13.265000000  -8.791000000
  C   17.699000000 -12.012000000 -10.155000000
  N   17.215000000 -10.804000000 -10.436000000
  H   17.270000000 -10.078000000  -9.744000000
  H   17.046000000 -10.550000000 -11.398000000
  N   17.870000000 -12.887000000 -11.147000000
  H   18.402000000 -13.735000000 -10.923000000
  H   17.732000000 -12.607000000 -12.105000000
  H   14.873000000 -13.270000000  -6.536000000
