12
charge=0
  C   14.750000000   1.940000000   8.046000000
  H   14.619000000   2.402000000   7.066000000
  H   15.705000000   2.246000000   8.445000000
  C   14.669000000   0.420000000   7.864000000
  H   13.650000000   0.099000000   7.686000000
  H   15.215000000   0.196000000   6.947000000
  S   15.376000000  -0.683000000   9.143000000
  C   14.260000000  -0.500000000  10.535000000
  H   14.455000000  -1.293000000  11.258000000
  H   14.420000000   0.455000000  11.031000000
  H   13.230000000  -0.579000000  10.196000000
  H   13.908000000   2.348000000   8.744000000
