14
charge=0
  C   13.131000000 -10.474000000   1.687000000
  H   12.317000000 -10.861000000   1.070000000
  H   12.749000000 -10.145000000   2.648000000
  C   13.719000000  -9.213000000   1.065000000
  H   14.053000000  -9.439000000   0.053000000
  C   12.650000000  -8.156000000   0.979000000
  H   12.994000000  -7.342000000   0.344000000
  H   11.759000000  -8.598000000   0.540000000
  H   12.406000000  -7.771000000   1.971000000
  C   14.912000000  -8.701000000   1.846000000
  H   15.170000000  -7.696000000   1.515000000
  H   14.661000000  -8.675000000   2.905000000
  H   15.778000000  -9.343000000   1.682000000
  H   13.904000000 -11.344000000   1.935000000
