10
charge=-1
  C   13.057000000  -9.272000000  -4.275000000
  H   13.569000000  -8.820000000  -5.122000000
  H   12.003000000  -9.408000000  -4.522000000
  C   13.211000000  -8.348000000  -3.007000000
  H   12.636000000  -8.767000000  -2.181000000
  H   14.257000000  -8.328000000  -2.703000000
  C   12.745000000  -6.948000000  -3.196000000
  O   13.003000000  -6.128000000  -2.288000000
  O   12.117000000  -6.660000000  -4.228000000
  H   13.548000000 -10.314000000  -4.030000000
