14
charge=0
  C   17.784000000  -2.966000000   3.492000000
  H   16.991000000  -3.370000000   2.868000000
  H   17.665000000  -3.428000000   4.451000000
  C   17.552000000  -1.489000000   3.765000000
  H   18.150000000  -0.899000000   3.068000000
  C   16.100000000  -1.219000000   3.488000000
  H   15.466000000  -1.847000000   4.117000000
  H   15.871000000  -0.175000000   3.696000000
  H   15.874000000  -1.413000000   2.438000000
  C   17.916000000  -1.094000000   5.211000000
  H   17.704000000  -0.039000000   5.356000000
  H   17.330000000  -1.672000000   5.927000000
  H   18.977000000  -1.265000000   5.389000000
  H   18.800000000  -3.382000000   3.091000000
