16
charge=0
  C   26.218000000   5.340000000  26.582000000
  H   25.856000000   4.347000000  26.822000000
  H   26.775000000   5.235000000  25.657000000
  C   27.209000000   5.797000000  27.661000000
  C   28.166000000   6.741000000  27.372000000
  H   28.175000000   7.178000000  26.391000000
  C   29.096000000   7.155000000  28.346000000
  H   29.837000000   7.904000000  28.110000000
  C   29.036000000   6.623000000  29.619000000
  O   29.944000000   7.042000000  30.534000000
  H   29.798000000   6.669000000  31.409000000
  C   28.081000000   5.664000000  29.945000000
  H   28.032000000   5.259000000  30.946000000
  C   27.177000000   5.254000000  28.974000000
  H   26.418000000   4.526000000  29.209000000
  H   25.300000000   6.077000000  26.426000000
