9
charge=0
  C   33.294000000   8.380000000  33.959000000
  O   32.202000000   8.082000000  33.514000000
  N   34.446000000   7.846000000  33.541000000
  H   35.277000000   8.163000000  34.022000000
  C   34.652000000   6.892000000  32.435000000
  H   35.701000000   6.589000000  32.429000000
  H   33.399000000   9.199000000  34.795000000
  H   34.448000000   7.355000000  31.378000000
  H   34.000000000   5.913000000  32.540000000
