9
charge=0
  C   23.940000000  14.987000000  28.091000000
  O   25.088000000  15.369000000  27.857000000
  N   22.850000000  15.498000000  27.512000000
  H   21.945000000  15.054000000  27.666000000
  C   22.958000000  16.529000000  26.482000000
  H   23.722000000  16.215000000  25.776000000
  H   23.770000000  14.146000000  28.884000000
  H   23.327000000  17.552000000  26.934000000
  H   21.940000000  16.644000000  25.864000000
