19
charge=+1
  C   32.630000000   5.189000000  28.277000000
  H   33.413000000   4.772000000  28.910000000
  H   32.326000000   6.127000000  28.736000000
  C   31.402000000   4.256000000  28.207000000
  H   30.547000000   4.847000000  27.912000000
  H   31.543000000   3.459000000  27.484000000
  C   31.129000000   3.607000000  29.529000000
  H   30.896000000   4.391000000  30.250000000
  H   30.271000000   2.944000000  29.441000000
  N   32.302000000   2.863000000  29.956000000
  H   32.916000000   2.506000000  29.231000000
  C   32.601000000   2.545000000  31.215000000
  N   31.798000000   2.867000000  32.236000000
  H   30.912000000   3.312000000  32.072000000
  H   32.042000000   2.591000000  33.177000000
  N   33.719000000   1.899000000  31.443000000
  H   34.360000000   1.705000000  30.685000000
  H   33.993000000   1.671000000  32.387000000
  H   33.122000000   5.397000000  27.224000000
