16
charge=0
  C   23.432000000  10.532000000  38.945000000
  H   22.356000000  10.617000000  39.065000000
  H   23.893000000  11.025000000  39.800000000
  C   23.858000000  11.357000000  37.739000000
  C   24.843000000  10.900000000  36.843000000
  H   25.302000000   9.934000000  36.962000000
  C   25.246000000  11.663000000  35.746000000
  H   25.990000000  11.279000000  35.062000000
  C   24.698000000  12.921000000  35.535000000
  O   25.107000000  13.674000000  34.435000000
  H   24.542000000  14.456000000  34.320000000
  C   23.720000000  13.409000000  36.416000000
  H   23.312000000  14.401000000  36.262000000
  C   23.306000000  12.629000000  37.510000000
  H   22.557000000  13.010000000  38.190000000
  H   23.760000000   9.394000000  38.939000000
