9
charge=0
  C   20.931000000   6.551000000  28.799000000
  O   20.752000000   7.515000000  28.089000000
  N   22.073000000   6.350000000  29.434000000
  H   22.164000000   5.519000000  30.007000000
  C   23.124000000   7.354000000  29.500000000
  H   22.669000000   8.339000000  29.614000000
  H   20.112000000   5.724000000  28.893000000
  H   23.811000000   7.408000000  28.545000000
  H   23.780000000   7.149000000  30.457000000
