9
charge=0
  C   34.218000000  11.165000000  33.486000000
  O   33.347000000  10.893000000  32.655000000
  N   34.371000000  10.490000000  34.625000000
  H   35.086000000  10.774000000  35.292000000
  C   33.431000000   9.448000000  35.050000000
  H   33.824000000   8.963000000  35.943000000
  H   34.983000000  12.020000000  33.267000000
  H   33.326000000   8.629000000  34.214000000
  H   32.368000000   9.897000000  35.292000000
