9
charge=0
  C   23.549000000  -1.543000000  32.856000000
  O   23.680000000  -0.411000000  32.366000000
  N   23.148000000  -2.603000000  32.149000000
  H   23.112000000  -3.527000000  32.590000000
  C   22.911000000  -2.500000000  30.698000000
  H   23.829000000  -2.154000000  30.233000000
  H   23.766000000  -1.719000000  33.984000000
  H   22.090000000  -1.720000000  30.452000000
  H   22.637000000  -3.547000000  30.203000000
