9
charge=0
  C   19.214000000   1.670000000  37.834000000
  O   18.453000000   2.035000000  38.734000000
  N   20.370000000   2.254000000  37.583000000
  H   20.904000000   1.965000000  36.779000000
  C   20.793000000   3.445000000  38.269000000
  H   19.975000000   3.772000000  38.891000000
  H   18.947000000   0.769000000  37.135000000
  H   21.031000000   4.310000000  37.519000000
  H   21.721000000   3.206000000  38.941000000
