9
charge=0
  C   34.386000000   7.496000000  31.056000000
  O   34.703000000   6.858000000  30.051000000
  N   33.799000000   8.693000000  30.974000000
  H   33.565000000   9.206000000  31.819000000
  C   33.280000000   9.197000000  29.701000000
  H   33.200000000   8.352000000  29.029000000
  H   34.590000000   7.033000000  32.113000000
  H   33.949000000  10.008000000  29.167000000
  H   32.192000000   9.615000000  29.849000000
