9
charge=0
  C   27.565000000   1.719000000  26.639000000
  O   28.673000000   1.372000000  26.218000000
  N   26.996000000   2.869000000  26.293000000
  H   26.070000000   3.091000000  26.654000000
  C   27.663000000   3.785000000  25.372000000
  H   27.921000000   3.243000000  24.461000000
  H   26.962000000   1.030000000  27.369000000
  H   28.665000000   4.195000000  25.820000000
  H   26.954000000   4.689000000  25.096000000
