10
charge=-1
  C   34.421000000  -0.072000000  20.898000000
  H   34.358000000   0.366000000  19.904000000
  H   34.467000000   0.747000000  21.612000000
  C   35.691000000  -0.918000000  20.983000000
  H   35.758000000  -1.378000000  21.967000000
  H   35.631000000  -1.716000000  20.243000000
  C   36.966000000  -0.119000000  20.753000000
  O   36.883000000   1.093000000  20.452000000
  O   38.060000000  -0.710000000  20.876000000
  H   33.426000000  -0.683000000  21.088000000
