9
charge=0
  C   28.523000000  -2.879000000  29.656000000
  O   28.233000000  -1.739000000  30.027000000
  N   27.741000000  -3.933000000  29.858000000
  H   28.049000000  -4.849000000  29.558000000
  C   26.525000000  -3.850000000  30.656000000
  H   26.124000000  -2.844000000  30.554000000
  H   29.516000000  -3.087000000  29.083000000
  H   26.789000000  -4.062000000  31.774000000
  H   25.734000000  -4.632000000  30.267000000
