9
charge=0
  C   26.929000000   2.293000000  29.529000000
  O   28.161000000   2.372000000  29.435000000
  N   26.188000000   1.561000000  28.701000000
  H   25.184000000   1.493000000  28.852000000
  C   26.778000000   0.820000000  27.592000000
  H   27.477000000   0.087000000  28.000000000
  H   26.345000000   2.879000000  30.364000000
  H   27.381000000   1.509000000  26.862000000
  H   25.939000000   0.243000000  26.997000000
