9
charge=0
  C   30.772000000  -0.407000000  20.732000000
  O   30.566000000  -1.564000000  20.372000000
  N   31.971000000   0.026000000  21.118000000
  H   32.099000000   0.990000000  21.401000000
  C   33.128000000  -0.866000000  21.145000000
  H   33.036000000  -1.560000000  20.315000000
  H   29.899000000   0.370000000  20.747000000
  H   33.199000000  -1.422000000  22.171000000
  H   34.123000000  -0.255000000  20.955000000
