9
charge=0
  C   30.970000000  -2.005000000  27.105000000
  O   31.436000000  -3.057000000  26.669000000
  N   30.269000000  -1.942000000  28.230000000
  H   29.914000000  -1.056000000  28.558000000
  C   29.819000000  -3.150000000  28.908000000
  H   29.636000000  -3.942000000  28.183000000
  H   31.143000000  -1.001000000  26.547000000
  H   28.826000000  -2.942000000  29.481000000
  H   30.644000000  -3.547000000  29.655000000
