14
charge=0
  C   28.524000000   0.096000000  21.698000000
  H   28.115000000  -0.833000000  21.291000000
  C   29.101000000  -0.200000000  23.071000000
  H   28.339000000  -0.632000000  23.717000000
  H   29.903000000  -0.935000000  23.031000000
  H   29.474000000   0.716000000  23.527000000
  C   27.395000000   1.128000000  21.775000000
  H   27.782000000   2.038000000  22.234000000
  H   27.039000000   1.380000000  20.778000000
  C   26.188000000   0.652000000  22.568000000
  H   25.436000000   1.442000000  22.570000000
  H   25.762000000  -0.219000000  22.084000000
  H   26.444000000   0.429000000  23.602000000
  H   29.377000000   0.489000000  20.970000000
