14
charge=0
  C   25.497000000  -4.867000000  30.150000000
  H   25.952000000  -5.859000000  30.178000000
  H   24.649000000  -4.883000000  30.838000000
  C   24.970000000  -4.611000000  28.735000000
  H   25.815000000  -4.524000000  28.070000000
  C   24.074000000  -5.760000000  28.296000000
  H   23.753000000  -5.606000000  27.266000000
  H   24.617000000  -6.704000000  28.361000000
  H   23.203000000  -5.800000000  28.934000000
  C   24.201000000  -3.294000000  28.705000000
  H   23.764000000  -3.140000000  27.727000000
  H   23.402000000  -3.316000000  29.447000000
  H   24.863000000  -2.453000000  28.902000000
  H   26.288000000  -4.085000000  30.539000000
