9
charge=0
  C   28.356000000  -0.202000000  16.335000000
  O   29.502000000  -0.269000000  15.892000000
  N   27.910000000   0.847000000  17.020000000
  H   26.956000000   0.841000000  17.370000000
  C   28.777000000   1.989000000  17.321000000
  H   29.572000000   2.058000000  16.579000000
  H   27.606000000  -1.087000000  16.168000000
  H   29.298000000   1.885000000  18.360000000
  H   28.158000000   2.987000000  17.304000000
