9
charge=0
  C   42.817000000  58.454000000  32.140000000
  O   43.311000000  57.852000000  31.193000000
  N   42.931000000  58.004000000  33.389000000
  H   42.595000000  58.564000000  34.170000000
  C   43.802000000  56.852000000  33.651000000
  H   44.696000000  56.948000000  33.034000000
  H   42.229000000  59.455000000  31.966000000
  H   43.306000000  55.823000000  33.374000000
  H   44.174000000  56.844000000  34.769000000
