16
charge=0
  C   49.697000000  45.136000000  39.420000000
  H   49.142000000  46.005000000  39.069000000
  H   50.261000000  44.744000000  38.574000000
  C   48.712000000  44.083000000  39.869000000
  C   49.112000000  42.773000000  40.079000000
  H   50.126000000  42.479000000  39.887000000
  C   48.213000000  41.812000000  40.491000000
  H   48.523000000  40.786000000  40.610000000
  C   46.888000000  42.153000000  40.693000000
  O   45.986000000  41.194000000  41.109000000
  H   46.284000000  40.301000000  41.391000000
  C   46.460000000  43.448000000  40.480000000
  H   45.423000000  43.706000000  40.645000000
  C   47.371000000  44.402000000  40.072000000
  H   47.039000000  45.418000000  39.923000000
  H   50.444000000  45.475000000  40.262000000
