9
charge=0
  C   43.155000000  55.509000000  33.289000000
  O   43.786000000  54.656000000  32.672000000
  N   41.889000000  55.345000000  33.644000000
  H   41.440000000  56.086000000  34.162000000
  C   41.258000000  54.031000000  33.681000000
  H   41.995000000  53.265000000  33.455000000
  H   43.651000000  56.538000000  33.566000000
  H   40.392000000  53.883000000  32.901000000
  H   40.827000000  53.845000000  34.760000000
