19
charge=0
  C   57.225000000  47.808000000  38.782000000
  H   58.258000000  47.460000000  38.746000000
  H   56.754000000  47.496000000  37.848000000
  C   57.250000000  49.297000000  38.828000000
  C   56.196000000  50.131000000  39.019000000
  H   55.166000000  49.900000000  39.002000000
  N   56.612000000  51.443000000  38.963000000
  H   56.010000000  52.264000000  39.002000000
  C   57.955000000  51.471000000  38.704000000
  C   58.820000000  52.560000000  38.546000000
  H   58.467000000  53.576000000  38.629000000
  C   60.138000000  52.290000000  38.303000000
  H   60.831000000  53.104000000  38.170000000
  C   60.608000000  50.967000000  38.212000000
  H   61.656000000  50.791000000  38.013000000
  C   59.740000000  49.883000000  38.354000000
  H   60.104000000  48.871000000  38.278000000
  C   58.391000000  50.135000000  38.607000000
  H   56.697000000  47.269000000  39.678000000
