19
charge=0
  C   41.994000000  46.579000000  46.926000000
  H   41.437000000  46.046000000  47.697000000
  H   41.293000000  46.933000000  46.202000000
  C   42.940000000  45.626000000  46.269000000
  C   43.307000000  44.385000000  46.711000000
  H   42.908000000  43.910000000  47.595000000
  N   44.238000000  43.836000000  45.854000000
  H   44.656000000  42.917000000  45.959000000
  C   44.491000000  44.727000000  44.841000000
  C   45.350000000  44.627000000  43.745000000
  H   45.952000000  43.746000000  43.590000000
  C   45.405000000  45.693000000  42.884000000
  H   46.080000000  45.664000000  42.045000000
  C   44.640000000  46.847000000  43.096000000
  H   44.721000000  47.675000000  42.403000000
  C   43.783000000  46.946000000  44.178000000
  H   43.186000000  47.835000000  44.333000000
  C   43.702000000  45.872000000  45.075000000
  H   42.595000000  47.471000000  47.402000000
