10
charge=-1
  C   44.286000000  56.841000000  35.104000000
  H   44.905000000  57.714000000  35.311000000
  H   43.397000000  56.940000000  35.730000000
  C   44.976000000  55.543000000  35.531000000
  H   44.981000000  55.516000000  36.619000000
  H   44.449000000  54.653000000  35.206000000
  C   46.433000000  55.483000000  35.076000000
  O   46.947000000  56.540000000  34.614000000
  O   47.054000000  54.388000000  35.178000000
  H   43.914000000  56.849000000  33.986000000
