12
charge=0
  C   53.264000000  55.754000000  38.988000000
  H   52.497000000  56.349000000  39.480000000
  H   53.196000000  55.965000000  37.919000000
  C   52.939000000  54.313000000  39.220000000
  N   52.982000000  53.732000000  40.469000000
  H   53.238000000  54.226000000  41.330000000
  C   52.644000000  52.458000000  40.375000000
  H   52.588000000  51.763000000  41.202000000
  N   52.377000000  52.192000000  39.111000000
  C   52.559000000  53.334000000  38.365000000
  H   52.418000000  53.440000000  37.299000000
  H   54.329000000  56.069000000  39.380000000
