9
charge=0
  C   57.555000000  45.091000000  40.868000000
  O   57.900000000  45.660000000  41.915000000
  N   56.882000000  45.696000000  39.899000000
  H   56.631000000  45.173000000  39.071000000
  C   56.538000000  47.107000000  39.947000000
  H   56.879000000  47.559000000  40.875000000
  H   57.789000000  43.967000000  40.679000000
  H   55.369000000  47.220000000  39.867000000
  H   57.066000000  47.646000000  39.051000000
