16
charge=0
  C   41.688000000  50.197000000  38.481000000
  H   41.905000000  50.977000000  37.770000000
  H   41.854000000  50.589000000  39.486000000
  C   42.609000000  49.034000000  38.227000000
  C   42.867000000  48.091000000  39.217000000
  H   42.438000000  48.206000000  40.202000000
  C   43.713000000  47.001000000  38.974000000
  H   43.909000000  46.283000000  39.759000000
  C   44.291000000  46.859000000  37.717000000
  O   45.132000000  45.799000000  37.441000000
  H   45.202000000  45.191000000  38.180000000
  C   44.029000000  47.782000000  36.719000000
  H   44.468000000  47.652000000  35.740000000
  C   43.194000000  48.853000000  36.973000000
  H   42.984000000  49.561000000  36.183000000
  H   40.559000000  49.909000000  38.337000000
