17
charge=+1
  C   27.492000000 -35.067000000  15.872000000
  H   26.898000000 -34.330000000  15.326000000
  H   27.736000000 -35.885000000  15.194000000
  C   26.676000000 -35.607000000  17.010000000
  H   27.218000000 -36.400000000  17.523000000
  H   26.435000000 -34.813000000  17.716000000
  C   25.386000000 -36.178000000  16.391000000
  H   24.863000000 -35.369000000  15.883000000
  H   25.641000000 -36.950000000  15.663000000
  C   24.482000000 -36.795000000  17.413000000
  H   24.959000000 -37.675000000  17.853000000
  H   24.296000000 -36.062000000  18.203000000
  N   23.184000000 -37.177000000  16.773000000
  H   22.475000000 -37.430000000  17.450000000
  H   22.824000000 -36.392000000  16.229000000
  H   23.304000000 -37.974000000  16.142000000
  H   28.506000000 -34.555000000  16.175000000
