9
charge=0
  C   18.667000000 -37.963000000  15.240000000
  O   17.624000000 -38.086000000  15.891000000
  N   19.248000000 -38.946000000  14.565000000
  H   20.090000000 -38.735000000  14.053000000
  C   18.752000000 -40.311000000  14.497000000
  H   17.665000000 -40.315000000  14.594000000
  H   19.239000000 -36.949000000  15.195000000
  H   19.191000000 -40.946000000  15.372000000
  H   19.020000000 -40.764000000  13.438000000
