9
charge=0
  C   28.548000000 -31.865000000  19.960000000
  O   29.141000000 -32.656000000  19.229000000
  N   27.937000000 -30.783000000  19.502000000
  H   27.485000000 -30.143000000  20.151000000
  C   27.829000000 -30.534000000  18.076000000
  H   28.293000000 -31.335000000  17.511000000
  H   28.515000000 -32.032000000  21.109000000
  H   28.364000000 -29.531000000  17.838000000
  H   26.687000000 -30.480000000  17.741000000
