9
charge=0
  C   18.208000000 -24.201000000  10.357000000
  H   17.126000000 -24.302000000  10.446000000
  H   18.592000000 -25.092000000   9.847000000
  C   18.782000000 -24.138000000  11.758000000
  O   17.926000000 -24.366000000  12.758000000
  N   19.976000000 -23.882000000  11.947000000
  H   20.614000000 -23.716000000  11.191000000
  H   20.307000000 -23.844000000  12.902000000
  H   18.456000000 -23.239000000   9.722000000
