12
charge=0
  C   17.472000000 -28.472000000  10.580000000
  H   17.619000000 -29.331000000   9.917000000
  H   17.989000000 -27.622000000  10.139000000
  C   18.119000000 -28.795000000  11.929000000
  H   17.403000000 -29.322000000  12.565000000
  H   18.973000000 -29.447000000  11.750000000
  S   18.723000000 -27.327000000  12.781000000
  C   18.698000000 -27.849000000  14.495000000
  H   19.176000000 -27.089000000  15.114000000
  H   17.668000000 -27.965000000  14.838000000
  H   19.241000000 -28.784000000  14.617000000
  H   16.314000000 -28.246000000  10.636000000
