9
charge=0
  C   21.882000000 -25.212000000   7.675000000
  O   21.996000000 -25.072000000   8.881000000
  N   21.730000000 -24.184000000   6.855000000
  H   21.679000000 -24.333000000   5.855000000
  C   21.648000000 -22.820000000   7.355000000
  H   22.341000000 -22.700000000   8.189000000
  H   21.910000000 -26.277000000   7.191000000
  H   20.564000000 -22.605000000   7.726000000
  H   21.947000000 -22.070000000   6.503000000
