12
charge=0
  C   15.161000000 -29.232000000  18.469000000
  H   14.823000000 -28.464000000  19.165000000
  H   14.829000000 -30.191000000  18.855000000
  C   16.659000000 -29.242000000  18.456000000
  N   17.538000000 -30.175000000  18.023000000
  H   17.318000000 -31.077000000  17.626000000
  C   18.799000000 -29.672000000  18.235000000
  H   19.728000000 -30.178000000  17.996000000
  N   18.697000000 -28.471000000  18.773000000
  C   17.416000000 -28.184000000  18.914000000
  H   17.019000000 -27.265000000  19.326000000
  H   14.685000000 -29.052000000  17.411000000
