9
charge=0
  C   25.421000000 -30.553000000   6.790000000
  O   24.801000000 -30.739000000   7.847000000
  N   25.750000000 -29.341000000   6.375000000
  H   26.240000000 -29.212000000   5.500000000
  C   25.368000000 -28.181000000   7.158000000
  H   25.205000000 -28.457000000   8.202000000
  H   25.757000000 -31.449000000   6.114000000
  H   24.378000000 -27.762000000   6.720000000
  H   26.218000000 -27.366000000   7.132000000
