9
charge=0
  C   27.281000000 -34.002000000  22.351000000
  O   26.476000000 -33.309000000  22.978000000
  N   28.325000000 -33.505000000  21.696000000
  H   28.976000000 -34.137000000  21.221000000
  C   28.505000000 -32.083000000  21.459000000
  H   27.675000000 -31.516000000  21.874000000
  H   27.165000000 -35.160000000  22.301000000
  H   28.538000000 -31.916000000  20.310000000
  H   29.510000000 -31.691000000  21.927000000
