9
charge=0
  C   16.564000000 -34.963000000  10.265000000
  O   17.244000000 -35.782000000   9.646000000
  N   16.920000000 -34.473000000  11.453000000
  H   16.273000000 -33.875000000  11.956000000
  C   18.224000000 -34.764000000  12.054000000
  H   18.841000000 -35.343000000  11.369000000
  H   15.549000000 -34.577000000   9.814000000
  H   18.139000000 -35.401000000  13.034000000
  H   18.814000000 -33.759000000  12.322000000
