7
charge=-1
  C   19.085000000 -35.800000000  16.419000000
  H   19.420000000 -34.775000000  16.239000000
  H   18.024000000 -35.768000000  16.594000000
  C   19.804000000 -36.315000000  17.662000000
  O   19.987000000 -35.542000000  18.631000000
  O   20.212000000 -37.499000000  17.654000000
  H   19.337000000 -36.446000000  15.467000000
