9
charge=0
  C   28.984000000 -35.228000000   9.198000000
  O   28.776000000 -36.085000000   8.354000000
  N   28.166000000 -34.202000000   9.409000000
  H   28.399000000 -33.523000000  10.121000000
  C   26.892000000 -34.042000000   8.691000000
  H   26.672000000 -34.939000000   8.115000000
  H   29.943000000 -35.292000000   9.869000000
  H   26.911000000 -33.121000000   7.983000000
  H   26.022000000 -33.856000000   9.449000000
