19
charge=+1
  C   38.788000000   4.661000000  14.764000000
  H   39.568000000   4.902000000  14.061000000
  H   39.251000000   4.713000000  15.749000000
  C   38.235000000   3.242000000  14.584000000
  H   37.430000000   3.081000000  15.302000000
  H   37.826000000   3.136000000  13.578000000
  C   39.323000000   2.160000000  14.798000000
  H   38.864000000   1.202000000  14.592000000
  H   40.104000000   2.333000000  14.060000000
  N   39.815000000   2.236000000  16.168000000
  H   39.124000000   2.288000000  16.910000000
  C   41.093000000   2.193000000  16.510000000
  N   42.011000000   2.041000000  15.569000000
  H   41.766000000   1.923000000  14.604000000
  H   42.990000000   2.049000000  15.832000000
  N   41.449000000   2.278000000  17.792000000
  H   40.745000000   2.387000000  18.514000000
  H   42.408000000   2.119000000  18.063000000
  H   37.965000000   5.512000000  14.760000000
