14
charge=0
  C   38.488000000  -9.582000000   4.126000000
  H   37.959000000 -10.396000000   4.625000000
  H   39.552000000  -9.772000000   4.274000000
  C   38.126000000  -8.240000000   4.807000000
  H   38.076000000  -7.427000000   4.088000000
  C   36.776000000  -8.333000000   5.503000000
  H   36.492000000  -7.353000000   5.888000000
  H   36.019000000  -8.665000000   4.792000000
  H   36.827000000  -9.038000000   6.331000000
  C   39.175000000  -7.873000000   5.843000000
  H   39.312000000  -8.694000000   6.546000000
  H   40.113000000  -7.656000000   5.350000000
  H   38.856000000  -6.977000000   6.377000000
  H   38.277000000  -9.637000000   2.966000000
