9
charge=0
  C   48.702000000  -6.654000000  13.432000000
  O   49.266000000  -5.691000000  12.910000000
  N   47.385000000  -6.719000000  13.597000000
  H   46.963000000  -7.520000000  14.056000000
  C   46.498000000  -5.623000000  13.193000000
  H   47.013000000  -4.898000000  12.566000000
  H   49.327000000  -7.576000000  13.800000000
  H   46.107000000  -5.083000000  14.160000000
  H   45.570000000  -6.051000000  12.605000000
