9
charge=0
  C   47.568000000  -3.553000000   3.706000000
  O   46.918000000  -3.238000000   2.710000000
  N   48.723000000  -4.210000000   3.625000000
  H   49.266000000  -4.385000000   4.456000000
  C   49.326000000  -4.538000000   2.320000000
  H   48.640000000  -4.294000000   1.511000000
  H   47.179000000  -3.282000000   4.770000000
  H   49.636000000  -5.652000000   2.119000000
  H   50.249000000  -3.843000000   2.178000000
