14
charge=0
  C   34.841000000 -12.638000000  12.005000000
  H   34.673000000 -12.646000000  10.936000000
  C   33.541000000 -12.296000000  12.725000000
  H   33.122000000 -11.368000000  12.340000000
  H   32.790000000 -13.063000000  12.559000000
  H   33.723000000 -12.200000000  13.795000000
  C   35.916000000 -11.582000000  12.252000000
  H   36.272000000 -11.661000000  13.280000000
  H   36.760000000 -11.759000000  11.585000000
  C   35.472000000 -10.143000000  12.020000000
  H   36.340000000  -9.489000000  12.098000000
  H   35.038000000 -10.041000000  11.024000000
  H   34.748000000  -9.835000000  12.774000000
  H   35.263000000 -13.706000000  12.353000000
