16
charge=0
  C   50.117000000  -9.330000000  12.044000000
  O   49.148000000 -10.051000000  12.235000000
  N   50.385000000  -8.265000000  12.810000000
  C   51.703000000  -7.609000000  12.917000000
  H   51.924000000  -7.004000000  12.037000000
  H   52.481000000  -8.354000000  13.090000000
  C   51.541000000  -6.710000000  14.152000000
  H   51.290000000  -5.679000000  13.926000000
  H   52.476000000  -6.683000000  14.712000000
  C   50.514000000  -7.460000000  14.986000000
  H   50.084000000  -6.818000000  15.755000000
  H   50.967000000  -8.342000000  15.430000000
  C   49.517000000  -7.857000000  13.912000000
  H   48.859000000  -8.643000000  14.275000000
  H   50.864000000  -9.563000000  11.192000000
  H   48.892000000  -6.935000000  13.544000000
