16
charge=0
  C   47.982000000   4.140000000   5.727000000
  H   48.275000000   5.178000000   5.902000000
  H   46.892000000   4.108000000   5.720000000
  C   48.427000000   3.301000000   6.871000000
  C   47.796000000   2.095000000   7.142000000
  H   46.960000000   1.782000000   6.533000000
  C   48.221000000   1.270000000   8.170000000
  H   47.715000000   0.339000000   8.364000000
  C   49.295000000   1.650000000   8.947000000
  O   49.701000000   0.794000000   9.955000000
  H   50.470000000   1.125000000  10.429000000
  C   49.951000000   2.857000000   8.708000000
  H   50.802000000   3.142000000   9.312000000
  C   49.506000000   3.678000000   7.661000000
  H   50.012000000   4.610000000   7.461000000
  H   48.377000000   3.786000000   4.683000000
