16
charge=0
  C   33.085000000  -5.720000000   2.070000000
  H   34.009000000  -5.153000000   2.215000000
  H   32.921000000  -5.814000000   0.999000000
  C   31.937000000  -4.955000000   2.656000000
  C   30.655000000  -5.101000000   2.144000000
  H   30.507000000  -5.714000000   1.272000000
  C   29.545000000  -4.501000000   2.768000000
  H   28.551000000  -4.643000000   2.371000000
  C   29.726000000  -3.732000000   3.915000000
  O   28.636000000  -3.143000000   4.539000000
  H   28.878000000  -2.552000000   5.272000000
  C   31.012000000  -3.559000000   4.439000000
  H   31.160000000  -2.964000000   5.328000000
  C   32.107000000  -4.179000000   3.800000000
  H   33.094000000  -4.071000000   4.227000000
  H   33.173000000  -6.795000000   2.537000000
