9
charge=0
  C   38.718000000  -0.197000000  10.463000000
  H   38.609000000   0.567000000   9.689000000
  C   38.139000000   0.344000000  11.749000000
  H   38.078000000  -0.445000000  12.496000000
  H   38.782000000   1.140000000  12.116000000
  H   37.158000000   0.780000000  11.569000000
  O   40.117000000  -0.468000000  10.643000000
  H   40.634000000  -0.301000000   9.826000000
  H   38.129000000  -1.203000000  10.118000000
