14
charge=0
  C   44.490000000   5.600000000   7.303000000
  H   44.575000000   4.949000000   6.433000000
  C   45.909000000   6.090000000   7.674000000
  H   45.880000000   6.683000000   8.589000000
  H   46.570000000   5.247000000   7.854000000
  H   46.316000000   6.692000000   6.875000000
  C   43.889000000   4.817000000   8.482000000
  H   43.868000000   5.444000000   9.374000000
  H   42.865000000   4.528000000   8.252000000
  C   44.641000000   3.488000000   8.845000000
  H   45.637000000   3.702000000   9.232000000
  H   44.078000000   2.960000000   9.615000000
  H   44.717000000   2.851000000   7.963000000
  H   43.786000000   6.537000000   7.033000000
