12
charge=0
  C   30.217000000  -9.561000000   8.824000000
  H   29.645000000  -9.041000000   8.057000000
  H   30.686000000 -10.432000000   8.363000000
  C   29.296000000 -10.061000000   9.924000000
  H   28.686000000  -9.240000000  10.309000000
  H   28.614000000 -10.800000000   9.500000000
  C   30.072000000 -10.666000000  11.083000000
  O   30.711000000  -9.805000000  11.878000000
  N   30.104000000 -11.900000000  11.262000000
  H   29.546000000 -12.514000000  10.688000000
  H   30.574000000 -12.255000000  12.079000000
  H   31.052000000  -8.857000000   9.251000000
