14
charge=0
  C   52.357000000  -0.587000000   5.804000000
  H   52.026000000  -1.044000000   6.739000000
  C   52.588000000   0.885000000   6.084000000
  H   52.787000000   1.417000000   5.157000000
  H   51.704000000   1.319000000   6.553000000
  H   53.431000000   1.012000000   6.765000000
  C   51.273000000  -0.823000000   4.730000000
  H   51.631000000  -0.463000000   3.776000000
  H   51.090000000  -1.894000000   4.687000000
  C   49.888000000  -0.113000000   4.966000000
  H   49.576000000  -0.271000000   5.998000000
  H   49.973000000   0.956000000   4.785000000
  H   49.139000000  -0.549000000   4.327000000
  H   53.390000000  -1.086000000   5.459000000
