9
charge=0
  C   33.918000000  -0.019000000  11.375000000
  O   33.090000000   0.517000000  10.646000000
  N   34.523000000   0.593000000  12.385000000
  H   35.241000000   0.082000000  12.889000000
  C   34.169000000   1.929000000  12.838000000
  H   33.095000000   2.062000000  12.709000000
  H   34.234000000  -1.115000000  11.203000000
  H   34.656000000   2.865000000  12.354000000
  H   34.410000000   1.990000000  13.993000000
