9
charge=0
  C   32.990000000  -7.787000000   5.013000000
  O   32.054000000  -8.555000000   4.756000000
  N   33.579000000  -7.036000000   4.086000000
  H   34.334000000  -6.421000000   4.348000000
  C   33.199000000  -7.118000000   2.677000000
  H   32.247000000  -7.627000000   2.560000000
  H   33.379000000  -7.662000000   6.108000000
  H   34.034000000  -7.727000000   2.141000000
  H   33.111000000  -6.043000000   2.210000000
