9
charge=0
  C   36.442000000  -1.217000000  10.050000000
  O   35.894000000  -0.554000000   9.154000000
  N   35.767000000  -1.677000000  11.087000000
  H   36.213000000  -2.239000000  11.798000000
  C   34.330000000  -1.449000000  11.151000000
  H   33.884000000  -1.779000000  10.210000000
  H   37.599000000  -1.438000000  10.023000000
  H   34.014000000  -0.353000000  11.323000000
  H   33.833000000  -2.055000000  12.014000000
