9
charge=0
  C   37.934000000  -1.994000000   5.396000000
  O   36.921000000  -2.656000000   5.509000000
  N   39.056000000  -2.313000000   6.034000000
  H   39.897000000  -1.740000000   5.962000000
  C   39.082000000  -3.467000000   6.917000000
  H   38.408000000  -4.245000000   6.561000000
  H   40.095000000  -3.860000000   6.930000000
  H   37.959000000  -1.035000000   4.705000000
  H   38.810000000  -3.232000000   8.031000000
