9
charge=0
  C   53.508000000  -2.753000000   5.299000000
  O   52.997000000  -3.342000000   6.247000000
  N   53.902000000  -3.394000000   4.199000000
  H   54.454000000  -2.904000000   3.499000000
  C   53.772000000  -4.850000000   4.120000000
  H   52.756000000  -5.149000000   4.386000000
  H   53.655000000  -1.590000000   5.342000000
  H   54.521000000  -5.349000000   4.864000000
  H   54.015000000  -5.219000000   3.049000000
