9
charge=0
  C   32.502000000  -8.604000000   8.405000000
  O   33.470000000  -9.354000000   8.564000000
  N   32.431000000  -7.734000000   7.407000000
  H   31.611000000  -7.150000000   7.296000000
  C   33.497000000  -7.624000000   6.441000000
  H   33.931000000  -6.628000000   6.531000000
  H   34.286000000  -8.354000000   6.609000000
  H   31.583000000  -8.636000000   9.152000000
  H   33.108000000  -7.749000000   5.346000000
