325
charge=-1
  N   13.041000000   1.388000000  33.152000000
  C   11.870000000   0.551000000  33.384000000
  C   14.067000000   1.427000000  33.993000000
  O   14.097000000   0.789000000  35.042000000
  H   13.100000000   1.900000000  32.282000000
  H   11.554000000   0.651000000  34.411000000
  H   14.955000000   2.120000000  33.680000000
  H   12.173000000  -0.563000000  33.175000000
  N   13.692000000  -1.933000000  25.585000000
  C   13.546000000  -0.612000000  24.995000000
  C   14.738000000  -2.278000000  26.338000000
  O   15.679000000  -1.529000000  26.597000000
  H   12.939000000  -2.599000000  25.436000000
  H   12.878000000  -0.685000000  24.135000000
  H   13.026000000   0.020000000  25.715000000
  H   14.710000000  -3.363000000  26.767000000
  H   14.511000000  -0.070000000  24.645000000
  N    6.421000000   1.072000000  36.961000000
  C    5.430000000   2.046000000  36.503000000
  C    7.491000000   1.426000000  37.669000000
  O    7.734000000   2.591000000  37.983000000
  H    6.363000000   0.119000000  36.622000000
  H    5.951000000   2.795000000  35.902000000
  H    8.210000000   0.561000000  37.992000000
  H    4.919000000   2.581000000  37.417000000
  N   12.254000000  12.036000000  31.608000000
  C   12.215000000  10.686000000  31.059000000
  C   11.147000000  12.622000000  32.061000000
  O   10.043000000  12.068000000  32.051000000
  H   13.144000000  12.506000000  31.668000000
  H   11.352000000  10.142000000  31.453000000
  H   11.255000000  13.704000000  32.473000000
  N   13.300000000   8.535000000  31.194000000
  C   14.378000000   7.575000000  31.417000000
  C   13.437000000   9.843000000  31.405000000
  O   14.458000000  10.358000000  31.865000000
  H   12.421000000   8.191000000  30.817000000
  H   15.254000000   8.071000000  31.837000000
  N   15.916000000   6.393000000  29.879000000
  C   16.958000000   6.104000000  30.868000000
  C   14.744000000   7.029000000  30.028000000
  O   13.942000000   7.114000000  29.101000000
  C   17.899000000   5.173000000  30.101000000
  C   17.827000000   5.716000000  28.710000000
  C   16.329000000   5.916000000  28.543000000
  H   16.544000000   5.526000000  31.684000000
  H   18.918000000   5.179000000  30.493000000
  H   17.478000000   4.176000000  30.147000000
  H   18.351000000   6.671000000  28.641000000
  H   18.221000000   5.006000000  27.982000000
  H   16.125000000   6.653000000  27.766000000
  H   15.842000000   4.967000000  28.315000000
  H   17.558000000   6.997000000  31.324000000
  N   19.221000000  10.723000000  27.864000000
  C   19.210000000  10.532000000  26.405000000
  C   20.251000000  11.221000000  28.550000000
  O   21.303000000  11.560000000  27.995000000
  H   18.411000000  10.421000000  28.387000000
  H   18.182000000  10.349000000  26.094000000
  H   20.148000000  11.324000000  29.714000000
  N   19.354000000   8.232000000  25.607000000
  C   19.990000000   6.965000000  25.253000000
  C   20.030000000   9.292000000  26.034000000
  O   21.257000000   9.281000000  26.112000000
  H   18.333000000   8.266000000  25.624000000
  H   20.372000000   6.483000000  26.145000000
  N   21.050000000   7.922000000  23.273000000
  C   22.142000000   8.122000000  22.315000000
  C   21.186000000   7.099000000  24.315000000
  O   22.228000000   6.480000000  24.552000000
  H   20.152000000   8.350000000  23.103000000
  H   22.516000000   7.138000000  22.033000000
  H   23.054000000   8.705000000  22.760000000
  H   21.751000000   8.644000000  21.334000000
  N    7.276000000  -1.473000000  26.569000000
  C    6.467000000  -1.289000000  27.758000000
  C    7.588000000  -2.685000000  26.121000000
  O    7.205000000  -3.725000000  26.660000000
  H    7.604000000  -0.651000000  26.080000000
  H    6.840000000  -1.916000000  28.565000000
  H    6.542000000  -0.245000000  28.065000000
  H    8.259000000  -2.710000000  25.161000000
  N    4.477000000  -1.855000000  26.453000000
  C    3.057000000  -2.164000000  26.303000000
  C    4.988000000  -1.609000000  27.656000000
  O    4.303000000  -1.633000000  28.676000000
  H    5.048000000  -1.769000000  25.625000000
  H    2.540000000  -2.021000000  27.252000000
  H    2.843000000  -3.278000000  26.003000000
  H    2.537000000  -1.420000000  25.546000000
  C   15.954000000   1.735000000  32.372000000
  C   15.202000000   1.810000000  31.064000000
  C   14.713000000   3.025000000  30.580000000
  C   14.995000000   0.665000000  30.297000000
  C   14.036000000   3.095000000  29.363000000
  C   14.323000000   0.723000000  29.083000000
  C   13.846000000   1.938000000  28.621000000
  O   13.180000000   1.997000000  27.419000000
  H   16.894000000   2.265000000  32.213000000
  H   16.211000000   0.698000000  32.591000000
  H   14.877000000   3.926000000  31.141000000
  H   15.374000000  -0.284000000  30.644000000
  H   13.662000000   4.043000000  29.000000000
  H   14.199000000  -0.169000000  28.493000000
  H   12.777000000   2.863000000  27.269000000
  H   15.394000000   2.193000000  33.305000000
  C   10.742000000   0.990000000  32.454000000
  C   10.344000000   2.426000000  32.635000000
  C    9.655000000   2.833000000  33.777000000
  C   10.680000000   3.380000000  31.679000000
  C    9.306000000   4.171000000  33.966000000
  C   10.337000000   4.724000000  31.856000000
  C    9.649000000   5.120000000  33.002000000
  H   11.061000000   0.841000000  31.421000000
  H    9.856000000   0.376000000  32.605000000
  H    9.378000000   2.107000000  34.527000000
  H   11.212000000   3.085000000  30.786000000
  H    8.774000000   4.465000000  34.852000000
  H   10.610000000   5.460000000  31.117000000
  H    9.412000000   6.162000000  33.154000000
  C   10.906000000  -2.613000000  28.810000000
  C    9.550000000  -2.724000000  29.493000000
  C   11.359000000  -1.160000000  28.743000000
  H   10.796000000  -2.982000000  27.791000000
  H    9.375000000  -3.696000000  29.929000000
  H    9.472000000  -1.990000000  30.297000000
  H    8.784000000  -2.520000000  28.757000000
  H   11.612000000  -0.773000000  29.730000000
  H   12.210000000  -1.060000000  28.073000000
  H   10.554000000  -0.560000000  28.323000000
  H   11.724000000  -3.287000000  29.372000000
  C   15.815000000   3.611000000  24.771000000
  C   14.896000000   4.098000000  23.662000000
  C   14.694000000   5.596000000  23.736000000
  N   13.987000000   6.117000000  22.568000000
  C   14.584000000   6.502000000  21.444000000
  N   15.904000000   6.417000000  21.320000000
  N   13.856000000   6.965000000  20.438000000
  H   15.363000000   3.820000000  25.743000000
  H   16.728000000   4.198000000  24.699000000
  H   15.345000000   3.851000000  22.699000000
  H   13.927000000   3.601000000  23.731000000
  H   14.107000000   5.817000000  24.630000000
  H   15.656000000   6.093000000  23.851000000
  H   12.980000000   6.184000000  22.619000000
  H   16.493000000   6.179000000  22.099000000
  H   16.336000000   6.703000000  20.439000000
  H   12.862000000   7.090000000  20.531000000
  H   14.333000000   7.347000000  19.618000000
  H   16.074000000   2.465000000  24.691000000
  C    4.345000000   1.367000000  35.624000000
  C    3.464000000   0.436000000  36.471000000
  C    3.508000000   2.415000000  34.905000000
  H    4.849000000   0.766000000  34.865000000
  H    2.815000000  -0.136000000  35.806000000
  H    4.069000000  -0.271000000  37.037000000
  H    2.823000000   1.003000000  37.147000000
  H    2.927000000   2.996000000  35.618000000
  H    4.155000000   3.082000000  34.333000000
  H    2.822000000   1.921000000  34.216000000
  C    7.428000000   5.896000000  36.780000000
  C    7.661000000   6.931000000  35.701000000
  C    6.790000000   7.298000000  34.715000000
  C    8.859000000   7.693000000  35.485000000
  C    8.638000000   8.498000000  34.344000000
  C   10.097000000   7.773000000  36.138000000
  N    7.369000000   8.235000000  33.897000000
  C    9.611000000   9.372000000  33.842000000
  C   11.065000000   8.641000000  35.639000000
  C   10.813000000   9.429000000  34.501000000
  H    8.277000000   5.214000000  36.782000000
  H    6.541000000   5.310000000  36.534000000
  H    5.792000000   6.893000000  34.589000000
  H    6.925000000   8.674000000  33.088000000
  H   10.295000000   7.169000000  37.010000000
  H    9.420000000   9.934000000  32.945000000
  H   12.027000000   8.730000000  36.109000000
  H   11.594000000  10.079000000  34.132000000
  H    7.333000000   6.329000000  37.875000000
  C    8.775000000  11.939000000  36.516000000
  C    8.460000000  12.409000000  35.105000000
  C    6.964000000  12.558000000  34.887000000
  C    6.572000000  12.269000000  33.444000000
  N    7.455000000  12.940000000  32.449000000
  H    8.485000000  10.888000000  36.592000000
  H    8.166000000  12.502000000  37.227000000
  H    8.927000000  13.375000000  34.913000000
  H    8.875000000  11.690000000  34.412000000
  H    6.423000000  11.854000000  35.523000000
  H    6.656000000  13.568000000  35.166000000
  H    6.613000000  11.186000000  33.288000000
  H    5.533000000  12.581000000  33.299000000
  H    7.091000000  12.777000000  31.518000000
  H    7.481000000  13.940000000  32.604000000
  H    8.389000000  12.548000000  32.468000000
  H    9.907000000  12.041000000  36.812000000
  C   12.079000000  10.738000000  29.534000000
  C   10.789000000  11.340000000  29.017000000
  C   10.609000000  11.132000000  27.529000000
  N    9.567000000  10.663000000  27.080000000
  O   11.640000000  11.452000000  26.758000000
  H   12.920000000  11.301000000  29.126000000
  H   12.153000000   9.730000000  29.139000000
  H    9.965000000  10.870000000  29.550000000
  H   10.759000000  12.408000000  29.225000000
  H    8.803000000  10.440000000  27.723000000
  H    9.468000000  10.543000000  26.084000000
  C   13.906000000   6.449000000  32.346000000
  C   13.559000000   6.853000000  33.787000000
  C   13.012000000   5.654000000  34.554000000
  C   14.787000000   7.422000000  34.491000000
  H   13.020000000   5.994000000  31.899000000
  H   14.662000000   5.678000000  32.417000000
  H   12.786000000   7.618000000  33.756000000
  H   12.167000000   5.221000000  34.024000000
  H   13.787000000   4.897000000  34.674000000
  H   12.677000000   5.974000000  35.541000000
  H   14.545000000   7.637000000  35.532000000
  H   15.609000000   6.706000000  34.461000000
  H   15.098000000   8.354000000  34.021000000
  C   19.708000000  11.769000000  25.616000000
  C   18.872000000  13.032000000  25.885000000
  C   17.584000000  13.029000000  25.069000000
  N   16.733000000  14.026000000  25.193000000
  O   17.314000000  12.123000000  24.305000000
  H   20.749000000  11.991000000  25.813000000
  H   19.686000000  11.533000000  24.552000000
  H   18.631000000  13.120000000  26.943000000
  H   19.453000000  13.912000000  25.614000000
  H   15.918000000  14.013000000  24.582000000
  H   16.885000000  14.774000000  25.849000000
  C   18.962000000   6.000000000  24.665000000
  O   18.347000000   6.550000000  23.517000000
  H   19.453000000   5.061000000  24.404000000
  H   18.199000000   5.801000000  25.418000000
  H   17.779000000   7.324000000  23.741000000
  C    3.722000000   3.715000000  21.775000000
  C    4.720000000   2.979000000  22.647000000
  C    4.365000000   2.515000000  23.915000000
  C    6.025000000   2.749000000  22.208000000
  C    5.295000000   1.837000000  24.731000000
  C    6.956000000   2.076000000  23.008000000
  C    6.587000000   1.623000000  24.267000000
  O    7.520000000   0.967000000  25.041000000
  H    4.254000000   4.377000000  21.089000000
  H    3.111000000   4.344000000  22.425000000
  H    3.361000000   2.682000000  24.281000000
  H    6.317000000   3.094000000  21.237000000
  H    5.009000000   1.492000000  25.715000000
  H    7.962000000   1.918000000  22.646000000
  H    8.393000000   1.018000000  24.641000000
  H    3.018000000   3.000000000  21.160000000
  C   19.918000000  14.083000000  22.604000000
  C   21.011000000  13.259000000  21.939000000
  O   21.498000000  13.644000000  20.856000000
  O   21.404000000  12.224000000  22.509000000
  H   20.244000000  14.380000000  23.600000000
  H   19.029000000  13.459000000  22.693000000
  H   19.634000000  15.049000000  21.990000000
  C   13.523000000  15.428000000  21.941000000
  C   14.125000000  14.036000000  22.094000000
  O   14.294000000  13.323000000  21.080000000
  O   14.436000000  13.658000000  23.242000000
  H   14.071000000  16.140000000  22.559000000
  H   12.496000000  15.386000000  22.311000000
  H   13.506000000  15.803000000  20.821000000
  N   15.088000000  10.798000000  23.547000000
  C   15.010000000   9.987000000  24.792000000
  C   16.115000000   8.924000000  24.830000000
  O   16.520000000   8.515000000  25.940000000
  C   13.635000000   9.327000000  24.908000000
  C   13.394000000   8.708000000  26.271000000
  C   12.045000000   8.046000000  26.402000000
  O   11.293000000   7.936000000  25.435000000
  O   16.578000000   8.524000000  23.744000000
  N   11.726000000   7.642000000  27.628000000
  C   10.472000000   6.967000000  27.934000000
  C   10.726000000   5.484000000  28.206000000
  S   11.291000000   4.524000000  26.810000000
  C    9.729000000   3.804000000  26.262000000
  C    8.930000000   3.171000000  27.370000000
  C    7.640000000   3.614000000  27.650000000
  C    9.464000000   2.135000000  28.133000000
  C    6.893000000   3.037000000  28.673000000
  C    8.723000000   1.550000000  29.161000000
  C    7.437000000   2.001000000  29.430000000
  C    9.834000000   7.550000000  29.180000000
  O   10.522000000   8.023000000  30.084000000
  N    8.512000000   7.468000000  29.229000000
  C    7.740000000   7.933000000  30.366000000
  C    6.555000000   7.062000000  30.633000000
  C    5.330000000   7.315000000  30.027000000
  C    6.683000000   5.941000000  31.441000000
  C    4.250000000   6.459000000  30.220000000
  C    5.611000000   5.081000000  31.640000000
  C    4.392000000   5.339000000  31.027000000
  C    7.452000000   9.433000000  30.354000000
  O    7.116000000   9.957000000  31.433000000
  O    7.569000000  10.068000000  29.284000000
  H   14.451000000  11.628000000  23.512000000
  H   14.979000000  10.247000000  22.677000000
  H   16.033000000  11.251000000  23.498000000
  H   15.183000000  10.660000000  25.635000000
  H   13.530000000   8.567000000  24.129000000
  H   12.863000000  10.080000000  24.726000000
  H   13.488000000   9.474000000  27.043000000
  H   14.141000000   7.944000000  26.489000000
  H   12.430000000   7.703000000  28.354000000
  H    9.753000000   7.078000000  27.117000000
  H    9.837000000   5.035000000  28.653000000
  H   11.516000000   5.423000000  28.960000000
  H    9.956000000   3.055000000  25.499000000
  H    9.146000000   4.591000000  25.775000000
  H    7.203000000   4.420000000  27.062000000
  H   10.471000000   1.779000000  27.928000000
  H    5.887000000   3.396000000  28.884000000
  H    9.147000000   0.745000000  29.756000000
  H    6.858000000   1.551000000  30.235000000
  H    8.012000000   7.054000000  28.459000000
  H    8.386000000   7.841000000  31.244000000
  H    5.211000000   8.179000000  29.374000000
  H    7.626000000   5.717000000  31.901000000
  H    3.296000000   6.665000000  29.737000000
  H    5.729000000   4.204000000  32.274000000
  H    3.549000000   4.667000000  31.182000000
