416
charge=1
  N   59.073000000   3.767000000  -0.597000000
  C   58.112000000   3.711000000   0.510000000
  C   59.799000000   4.859000000  -0.796000000
  O   59.658000000   5.870000000  -0.113000000
  H   59.181000000   2.959000000  -1.204000000
  H   57.501000000   4.613000000   0.514000000
  H   60.592000000   4.832000000  -1.668000000
  N   60.062000000   3.063000000   1.822000000
  C   60.918000000   3.024000000   3.013000000
  C   58.908000000   3.719000000   1.821000000
  O   58.508000000   4.336000000   2.793000000
  H   60.320000000   2.523000000   1.002000000
  H   60.324000000   2.690000000   3.865000000
  N   61.879000000   5.138000000   2.368000000
  C   62.380000000   6.488000000   2.582000000
  C   61.435000000   4.403000000   3.374000000
  O   61.348000000   4.826000000   4.517000000
  H   61.941000000   4.731000000   1.438000000
  H   63.145000000   6.459000000   3.357000000
  H   62.874000000   6.905000000   1.597000000
  N   60.099000000   7.325000000   2.388000000
  C   58.934000000   8.111000000   2.761000000
  C   61.245000000   7.408000000   3.052000000
  O   61.407000000   8.177000000   3.991000000
  H   60.020000000   6.694000000   1.595000000
  H   59.196000000   9.162000000   2.752000000
  N   58.527000000   6.427000000   4.458000000
  C   58.118000000   5.951000000   5.765000000
  C   58.488000000   7.723000000   4.166000000
  O   58.114000000   8.575000000   4.974000000
  H   58.816000000   5.760000000   3.754000000
  H   57.075000000   6.213000000   5.941000000
  H   58.243000000   4.872000000   5.815000000
  N   60.260000000   6.726000000   6.568000000
  C   61.165000000   7.346000000   7.523000000
  C   58.959000000   6.605000000   6.838000000
  O   58.443000000   6.999000000   7.893000000
  H   60.629000000   6.344000000   5.704000000
  H   61.004000000   6.880000000   8.497000000
  H   60.944000000   8.488000000   7.640000000
  H   62.291000000   7.187000000   7.230000000
  N   50.152000000   6.625000000   9.742000000
  C   50.554000000   6.875000000   8.353000000
  C   49.136000000   7.257000000  10.319000000
  O   48.411000000   8.054000000   9.724000000
  H   50.737000000   6.018000000  10.309000000
  H   50.726000000   7.941000000   8.192000000
  H   48.924000000   6.979000000  11.435000000
  N   48.902000000   5.253000000   7.686000000
  C   47.852000000   4.696000000   6.856000000
  C   49.435000000   6.442000000   7.419000000
  O   49.044000000   7.173000000   6.494000000
  H   49.320000000   4.678000000   8.420000000
  H   48.239000000   4.644000000   5.837000000
  H   46.908000000   5.379000000   6.826000000
  N   47.261000000   8.850000000   5.082000000
  C   47.382000000   8.596000000   3.654000000
  C   46.689000000   9.971000000   5.514000000
  O   46.187000000  10.784000000   4.753000000
  H   47.682000000   8.206000000   5.746000000
  H   47.782000000   9.500000000   3.201000000
  H   46.606000000  10.109000000   6.674000000
  H   46.329000000   8.432000000   3.163000000
  N   50.339000000   8.464000000  -1.494000000
  C   51.395000000   8.366000000  -0.475000000
  C   49.318000000   9.308000000  -1.384000000
  O   49.145000000  10.036000000  -0.407000000
  H   50.407000000   7.880000000  -2.322000000
  H   50.956000000   8.103000000   0.486000000
  H   48.558000000   9.311000000  -2.282000000
  N   52.420000000  10.324000000  -1.461000000
  C   53.046000000  11.639000000  -1.497000000
  C   52.093000000   9.729000000  -0.325000000
  O   52.335000000  10.220000000   0.787000000
  H   52.227000000   9.853000000  -2.346000000
  H   52.590000000  12.287000000  -0.750000000
  H   52.848000000  12.076000000  -2.552000000
  H   54.203000000  11.561000000  -1.301000000
  N   50.327000000  -4.568000000   6.981000000
  C   51.442000000  -3.806000000   6.462000000
  C   50.313000000  -5.898000000   6.881000000
  O   51.203000000  -6.530000000   6.318000000
  H   49.516000000  -4.082000000   7.345000000
  H   51.665000000  -4.132000000   5.448000000
  H   49.403000000  -6.450000000   7.349000000
  N   52.518000000  -4.261000000   8.607000000
  C   53.640000000  -4.606000000   9.473000000
  C   52.690000000  -4.135000000   7.289000000
  O   53.791000000  -4.255000000   6.745000000
  H   51.623000000  -4.003000000   9.009000000
  H   54.450000000  -3.887000000   9.342000000
  H   54.067000000  -5.655000000   9.193000000
  H   53.300000000  -4.629000000  10.595000000
  N   56.109000000  -5.651000000   5.811000000
  C   57.358000000  -4.920000000   6.031000000
  C   56.093000000  -6.749000000   5.069000000
  O   57.107000000  -7.199000000   4.520000000
  H   55.250000000  -5.333000000   6.249000000
  H   57.783000000  -4.644000000   5.066000000
  H   55.059000000  -7.278000000   4.961000000
  N   57.961000000  -6.493000000   7.775000000
  C   58.859000000  -7.372000000   8.529000000
  C   58.398000000  -5.787000000   6.733000000
  O   59.574000000  -5.776000000   6.374000000
  H   56.995000000  -6.459000000   8.038000000
  H   59.681000000  -6.780000000   8.954000000
  H   59.320000000  -8.171000000   7.808000000
  H   58.275000000  -7.913000000   9.396000000
  C   59.747000000  -1.740000000  -1.806000000
  C   58.442000000  -2.521000000  -1.588000000
  C   57.819000000  -2.189000000  -0.234000000
  C   57.423000000  -2.294000000  -2.731000000
  H   60.295000000  -2.182000000  -2.640000000
  H   60.364000000  -1.897000000  -0.920000000
  H   58.689000000  -3.582000000  -1.581000000
  H   58.454000000  -2.487000000   0.588000000
  H   57.652000000  -1.118000000  -0.143000000
  H   56.842000000  -2.654000000  -0.186000000
  H   56.547000000  -2.911000000  -2.553000000
  H   57.109000000  -1.251000000  -2.772000000
  H   57.885000000  -2.579000000  -3.682000000
  H   59.619000000  -0.578000000  -1.971000000
  C   57.227000000   2.462000000   0.426000000
  C   56.038000000   2.550000000  -0.555000000
  C   55.363000000   1.186000000  -0.795000000
  C   55.013000000   3.592000000  -0.126000000
  H   57.850000000   1.608000000   0.159000000
  H   56.819000000   2.259000000   1.418000000
  H   56.442000000   2.876000000  -1.516000000
  H   54.529000000   1.299000000  -1.488000000
  H   56.082000000   0.489000000  -1.224000000
  H   54.989000000   0.784000000   0.148000000
  H   55.461000000   4.580000000  -0.053000000
  H   54.211000000   3.640000000  -0.864000000
  H   54.587000000   3.319000000   0.840000000
  C   62.072000000   2.040000000   2.804000000
  C   61.591000000   0.614000000   2.802000000
  N   62.431000000  -0.303000000   2.344000000
  O   60.465000000   0.337000000   3.227000000
  H   62.598000000   2.259000000   1.877000000
  H   62.772000000   2.143000000   3.630000000
  H   62.174000000  -1.275000000   2.404000000
  H   63.358000000  -0.030000000   2.034000000
  C   57.781000000   7.858000000   1.781000000
  C   56.504000000   8.606000000   2.125000000
  C   56.786000000  10.096000000   2.160000000
  C   55.410000000   8.270000000   1.121000000
  H   58.107000000   8.140000000   0.781000000
  H   57.562000000   6.789000000   1.767000000
  H   56.148000000   8.310000000   3.110000000
  H   55.849000000  10.635000000   2.305000000
  H   57.439000000  10.357000000   2.991000000
  H   57.231000000  10.426000000   1.223000000
  H   54.487000000   8.767000000   1.416000000
  H   55.689000000   8.601000000   0.121000000
  H   55.242000000   7.192000000   1.108000000
  C   55.729000000   9.578000000   7.442000000
  C   55.173000000   9.957000000   6.061000000
  C   54.301000000  11.190000000   6.089000000
  N   54.072000000  11.732000000   7.278000000
  O   53.796000000  11.621000000   5.056000000
  H   56.166000000   8.583000000   7.348000000
  H   54.919000000   9.473000000   8.172000000
  H   55.994000000  10.116000000   5.362000000
  H   54.573000000   9.122000000   5.702000000
  H   53.442000000  12.525000000   7.285000000
  H   54.322000000  11.266000000   8.134000000
  H   56.574000000  10.290000000   7.851000000
  C   54.842000000   4.841000000  13.492000000
  C   55.469000000   4.926000000  12.181000000
  C   55.509000000   6.010000000  11.357000000
  C   56.291000000   3.928000000  11.580000000
  C   56.753000000   4.450000000  10.357000000
  C   56.647000000   2.622000000  11.940000000
  N   56.262000000   5.725000000  10.245000000
  C   57.557000000   3.717000000   9.485000000
  C   57.444000000   1.887000000  11.070000000
  C   57.906000000   2.448000000   9.862000000
  H   55.244000000   5.635000000  14.120000000
  H   55.135000000   3.888000000  13.930000000
  H   55.007000000   6.948000000  11.548000000
  H   56.389000000   6.339000000   9.447000000
  H   56.308000000   2.198000000  12.873000000
  H   57.907000000   4.143000000   8.556000000
  H   57.736000000   0.879000000  11.335000000
  H   58.553000000   1.862000000   9.224000000
  H   53.669000000   4.910000000  13.507000000
  C   52.319000000   1.086000000  10.663000000
  C   51.793000000   0.397000000   9.399000000
  S   52.616000000   0.938000000   7.872000000
  C   54.199000000   0.162000000   8.060000000
  H   53.386000000   0.884000000  10.756000000
  H   51.813000000   0.638000000  11.518000000
  H   51.923000000  -0.683000000   9.500000000
  H   50.726000000   0.595000000   9.300000000
  H   54.785000000   0.316000000   7.154000000
  H   54.736000000   0.600000000   8.901000000
  H   54.075000000  -0.908000000   8.221000000
  H   52.161000000   2.255000000  10.708000000
  C   51.830000000   6.088000000   8.006000000
  C   53.164000000   6.791000000   8.357000000
  S   54.616000000   6.113000000   7.445000000
  C   54.431000000   4.340000000   7.548000000
  H   51.809000000   5.102000000   8.468000000
  H   51.844000000   5.938000000   6.926000000
  H   53.082000000   7.853000000   8.123000000
  H   53.339000000   6.689000000   9.433000000
  H   55.289000000   3.859000000   7.076000000
  H   54.384000000   4.029000000   8.592000000
  H   53.527000000   4.018000000   7.031000000
  C   47.497000000   3.257000000   7.283000000
  C   46.196000000   2.827000000   6.630000000
  C   48.622000000   2.316000000   6.909000000
  H   47.366000000   3.231000000   8.366000000
  H   46.039000000   1.758000000   6.811000000
  H   45.354000000   3.362000000   7.074000000
  H   46.228000000   3.002000000   5.554000000
  H   48.488000000   1.389000000   7.465000000
  H   48.596000000   2.117000000   5.838000000
  H   49.597000000   2.731000000   7.151000000
  C   48.347000000   7.457000000   3.347000000
  C   48.617000000   7.328000000   1.866000000
  S   47.424000000   6.287000000   1.005000000
  C   47.826000000   4.662000000   1.700000000
  H   49.292000000   7.689000000   3.837000000
  H   47.974000000   6.522000000   3.763000000
  H   48.628000000   8.316000000   1.406000000
  H   49.601000000   6.877000000   1.733000000
  H   48.898000000   4.490000000   1.642000000
  H   47.510000000   4.602000000   2.741000000
  H   47.318000000   3.880000000   1.139000000
  C   46.627000000  12.310000000   1.404000000
  C   47.473000000  13.018000000   2.428000000
  C   48.938000000  13.086000000   1.954000000
  N   49.658000000  11.810000000   2.049000000
  C   50.023000000  11.218000000   3.188000000
  N   50.712000000  10.076000000   3.159000000
  N   49.699000000  11.750000000   4.360000000
  H   46.804000000  11.238000000   1.499000000
  H   46.983000000  12.594000000   0.407000000
  H   47.108000000  14.044000000   2.524000000
  H   47.385000000  12.526000000   3.394000000
  H   48.986000000  13.464000000   0.934000000
  H   49.459000000  13.822000000   2.570000000
  H   49.865000000  11.323000000   1.186000000
  H   51.189000000   9.824000000   2.303000000
  H   51.054000000   9.660000000   4.013000000
  H   49.212000000  12.634000000   4.402000000
  H   50.044000000  11.340000000   5.213000000
  H   45.468000000  12.550000000   1.409000000
  C   52.415000000   7.289000000  -0.873000000
  C   51.894000000   5.880000000  -0.750000000
  C   51.507000000   5.166000000  -1.866000000
  C   51.750000000   5.282000000   0.504000000
  C   50.995000000   3.865000000  -1.747000000
  C   51.259000000   3.983000000   0.624000000
  C   50.875000000   3.277000000  -0.507000000
  H   52.911000000   7.453000000  -1.806000000
  H   53.221000000   7.356000000  -0.148000000
  H   51.581000000   5.621000000  -2.845000000
  H   52.034000000   5.827000000   1.390000000
  H   50.679000000   3.324000000  -2.616000000
  H   51.162000000   3.527000000   1.598000000
  H   50.477000000   2.276000000  -0.415000000
  C   51.718000000  -4.379000000  -0.668000000
  C   53.020000000  -3.688000000  -0.982000000
  S   53.323000000  -2.419000000   0.303000000
  C   52.972000000  -3.331000000   1.724000000
  H   51.007000000  -3.589000000  -0.439000000
  H   51.822000000  -4.964000000   0.242000000
  H   53.837000000  -4.409000000  -1.005000000
  H   52.962000000  -3.181000000  -1.929000000
  H   53.442000000  -2.891000000   2.596000000
  H   51.893000000  -3.342000000   1.851000000
  H   53.291000000  -4.353000000   1.589000000
  H   51.329000000  -5.181000000  -1.444000000
  C   45.313000000   1.417000000   1.891000000
  C   46.183000000   0.869000000   3.017000000
  S   47.875000000   1.469000000   2.895000000
  C   48.583000000   0.408000000   1.633000000
  H   45.656000000   1.017000000   0.936000000
  H   45.450000000   2.497000000   1.859000000
  H   45.778000000   1.207000000   3.969000000
  H   46.186000000  -0.219000000   3.000000000
  H   49.664000000   0.549000000   1.611000000
  H   48.363000000  -0.636000000   1.854000000
  H   48.184000000   0.679000000   0.658000000
  H   44.175000000   1.199000000   2.056000000
  C   51.119000000  -2.308000000   6.493000000
  C   50.227000000  -1.844000000   5.329000000
  C   49.718000000  -0.432000000   5.569000000
  C   51.003000000  -1.928000000   3.986000000
  H   50.644000000  -2.061000000   7.443000000
  H   52.055000000  -1.748000000   6.443000000
  H   49.357000000  -2.500000000   5.264000000
  H   49.139000000  -0.103000000   4.713000000
  H   49.078000000  -0.446000000   6.448000000
  H   50.555000000   0.241000000   5.738000000
  H   50.390000000  -1.528000000   3.178000000
  H   51.930000000  -1.356000000   4.045000000
  H   51.216000000  -2.970000000   3.774000000
  C   53.854000000  -6.700000000   3.923000000
  C   54.500000000  -6.479000000   2.582000000
  C   55.261000000  -5.349000000   2.339000000
  C   54.314000000  -7.393000000   1.547000000
  C   55.826000000  -5.127000000   1.078000000
  C   54.907000000  -7.195000000   0.284000000
  C   55.657000000  -6.065000000   0.053000000
  H   52.946000000  -7.276000000   3.786000000
  H   53.568000000  -5.732000000   4.338000000
  H   55.415000000  -4.644000000   3.135000000
  H   53.720000000  -8.285000000   1.714000000
  H   56.453000000  -4.274000000   0.930000000
  H   54.772000000  -7.921000000  -0.505000000
  H   56.112000000  -5.900000000  -0.912000000
  H   54.539000000  -7.268000000   4.696000000
  C   57.123000000  -3.625000000   6.830000000
  C   58.443000000  -2.941000000   7.082000000
  O   56.266000000  -2.746000000   6.084000000
  H   56.654000000  -3.858000000   7.788000000
  H   55.363000000  -3.068000000   6.205000000
  H   58.259000000  -1.949000000   7.494000000
  H   59.014000000  -3.509000000   7.811000000
  H   59.006000000  -2.845000000   6.153000000
  C   59.935000000  -6.481000000   2.759000000
  C   60.650000000  -5.714000000   1.649000000
  C   61.178000000  -6.677000000   0.586000000
  C   59.684000000  -4.694000000   1.030000000
  H   58.976000000  -6.825000000   2.366000000
  H   59.710000000  -5.774000000   3.560000000
  H   61.492000000  -5.175000000   2.069000000
  H   61.546000000  -6.114000000  -0.261000000
  H   62.001000000  -7.264000000   0.979000000
  H   60.379000000  -7.342000000   0.254000000
  H   60.213000000  -4.087000000   0.298000000
  H   58.855000000  -5.210000000   0.544000000
  H   59.297000000  -4.058000000   1.825000000
  H   60.473000000  -7.420000000   3.238000000
  C   65.640000000  -1.083000000   5.285000000
  C   64.341000000  -1.781000000   4.994000000
  C   64.295000000  -2.835000000   4.103000000
  C   63.168000000  -1.394000000   5.625000000
  C   63.108000000  -3.492000000   3.835000000
  C   61.966000000  -2.017000000   5.329000000
  C   61.942000000  -3.087000000   4.458000000
  H   66.463000000  -1.802000000   5.254000000
  H   65.595000000  -0.729000000   6.316000000
  H   65.200000000  -3.168000000   3.616000000
  H   63.178000000  -0.575000000   6.328000000
  H   63.108000000  -4.325000000   3.152000000
  H   61.053000000  -1.679000000   5.795000000
  H   61.008000000  -3.594000000   4.253000000
  H   65.865000000  -0.171000000   4.570000000
  C   63.237000000   1.849000000   8.274000000
  C   62.705000000   3.173000000   7.783000000
  S   61.190000000   3.649000000   8.659000000
  C   61.867000000   4.714000000   9.932000000
  H   64.093000000   1.555000000   7.664000000
  H   62.458000000   1.101000000   8.119000000
  H   63.459000000   3.950000000   7.896000000
  H   62.463000000   3.081000000   6.723000000
  H   61.033000000   5.199000000  10.439000000
  H   62.453000000   4.162000000  10.650000000
  H   62.503000000   5.473000000   9.487000000
  H   63.534000000   1.838000000   9.416000000
  C   61.187000000  -3.009000000  10.800000000
  C   60.496000000  -1.829000000  10.115000000
  C   60.628000000  -4.355000000  10.309000000
  C   61.019000000  -1.587000000   8.708000000
  H   62.253000000  -2.958000000  10.556000000
  H   59.422000000  -2.018000000  10.071000000
  H   60.639000000  -0.904000000  10.672000000
  H   60.608000000  -4.379000000   9.222000000
  H   61.270000000  -5.182000000  10.614000000
  H   59.614000000  -4.504000000  10.685000000
  H   60.974000000  -2.489000000   8.105000000
  H   60.433000000  -0.800000000   8.238000000
  H   62.059000000  -1.266000000   8.752000000
  H   61.081000000  -2.920000000  11.966000000
  C   55.148000000  -1.151000000   3.598000000
  N   55.745000000  -0.160000000   4.529000000
  C   57.201000000  -0.297000000   4.498000000
  C   57.527000000  -1.026000000   3.177000000
  C   56.284000000  -1.961000000   2.972000000
  C   55.568000000   1.233000000   4.368000000
  O   56.675000000   1.912000000   4.694000000
  C   57.787000000   1.094000000   4.728000000
  N   54.433000000   1.800000000   3.944000000
  C   54.119000000   3.119000000   3.910000000
  C   52.765000000   3.481000000   4.075000000
  C   52.454000000   4.837000000   4.038000000
  C   53.438000000   5.827000000   3.844000000
  C   54.761000000   5.480000000   3.684000000
  C   55.100000000   4.126000000   3.718000000
  C   51.703000000   2.428000000   4.283000000
  O   58.704000000  -1.781000000   3.271000000
  C   53.147000000   7.204000000   3.805000000
  N   52.785000000   8.287000000   3.792000000
  C   58.319000000   1.238000000   6.141000000
 Cl   50.837000000   5.307000000   4.232000000
  F   59.364000000   0.431000000   6.272000000
  F   57.407000000   0.941000000   7.077000000
  F   58.684000000   2.484000000   6.322000000
  H   54.586000000  -0.639000000   2.808000000
  H   54.470000000  -1.810000000   4.148000000
  H   57.529000000  -0.950000000   5.307000000
  H   57.589000000  -0.305000000   2.355000000
  H   56.087000000  -2.184000000   1.926000000
  H   56.452000000  -2.881000000   3.526000000
  H   58.507000000   1.399000000   3.971000000
  H   55.535000000   6.229000000   3.547000000
  H   56.139000000   3.869000000   3.557000000
  H   51.951000000   1.485000000   3.793000000
  H   50.730000000   2.716000000   3.883000000
  H   51.587000000   2.239000000   5.351000000
  H   59.457000000  -1.129000000   3.266000000
