59
charge=1
  C   -6.531000000   8.522000000  13.950000000
  H   -5.740000000   7.905000000  14.379000000
  H   -7.137000000   7.875000000  13.315000000
  C   -5.911000000   9.585000000  13.080000000
  C   -4.764000000  10.255000000  13.481000000
  H   -4.301000000  10.007000000  14.425000000
  C   -4.193000000  11.225000000  12.680000000
  H   -3.288000000  11.732000000  12.984000000
  C   -4.774000000  11.539000000  11.472000000
  O   -4.220000000  12.499000000  10.658000000
  H   -3.333000000  12.844000000  10.907000000
  C   -5.915000000  10.891000000  11.059000000
  H   -6.360000000  11.139000000  10.106000000
  C   -6.475000000   9.913000000  11.859000000
  H   -7.356000000   9.385000000  11.527000000
  H   -7.222000000   8.941000000  14.827000000
  O   -2.775000000   8.045000000   8.480000000
  C   -3.267000000   9.363000000   8.200000000
  C   -2.313000000  10.473000000   8.629000000
  C   -1.103000000  10.642000000   7.694000000
  O   -1.516000000  10.841000000   6.337000000
  C   -0.266000000  11.838000000   8.192000000
  O    0.814000000  12.211000000   7.337000000
  C    0.364000000  11.558000000   9.549000000
  O    0.743000000  12.785000000  10.155000000
  N   -1.729000000  10.215000000   9.971000000
  C   -2.213000000   9.423000000  10.942000000
  C   -1.287000000   9.460000000  11.973000000
  N   -0.280000000  10.254000000  11.588000000
  C   -0.552000000  10.717000000  10.368000000
  C   -1.376000000   8.766000000  13.313000000
  C   -0.090000000   7.979000000  13.577000000
  C    0.221000000   6.855000000  12.588000000
  C    1.189000000   7.031000000  11.585000000
  C    1.500000000   6.000000000  10.679000000
  C   -0.421000000   5.613000000  12.680000000
  C   -0.105000000   4.586000000  11.773000000
  C    0.859000000   4.760000000  10.771000000
  H   -2.379000000   7.713000000   7.608000000
  H   -4.202000000   9.499000000   8.751000000
  H   -3.506000000   9.447000000   7.139000000
  H   -2.867000000  11.415000000   8.666000000
  H   -0.495000000   9.731000000   7.728000000
  H   -1.856000000   9.963000000   5.932000000
  H   -0.935000000  12.699000000   8.298000000
  H    0.476000000  12.592000000   6.478000000
  H    1.277000000  10.981000000   9.374000000
  H   -0.072000000  13.353000000  10.339000000
  H   -3.161000000   8.904000000  10.861000000
  H    0.492000000  10.541000000  12.174000000
  H   -2.233000000   8.088000000  13.336000000
  H   -1.523000000   9.504000000  14.105000000
  H   -0.165000000   7.537000000  14.574000000
  H    0.755000000   8.663000000  13.631000000
  H    1.706000000   7.985000000  11.509000000
  H    2.242000000   6.161000000   9.918000000
  H   -1.173000000   5.441000000  13.449000000
  H   -0.619000000   3.628000000  11.853000000
  H    1.096000000   3.953000000  10.078000000
