75
charge=-1
  C   15.068000000  -0.668000000  13.754000000
  H   14.798000000   0.032000000  14.539000000
  H   15.568000000  -1.523000000  14.196000000
  C   16.085000000   0.081000000  12.877000000
  H   16.515000000  -0.610000000  12.155000000
  C   15.393000000   1.224000000  12.121000000
  H   16.146000000   1.837000000  11.624000000
  H   14.725000000   0.840000000  11.352000000
  H   14.834000000   1.853000000  12.813000000
  C   17.217000000   0.629000000  13.766000000
  H   17.675000000  -0.191000000  14.319000000
  H   17.979000000   1.100000000  13.146000000
  H   16.824000000   1.363000000  14.471000000
  H   14.073000000  -1.012000000  13.222000000
  C   15.877000000   4.884000000  15.709000000
  C   14.683000000   4.766000000  15.014000000
  C   14.700000000   4.806000000  13.612000000
  C   15.943000000   4.996000000  12.944000000
  C   17.147000000   5.135000000  13.653000000
  C   17.088000000   5.072000000  15.047000000
  C   13.679000000   4.697000000  12.614000000
  C   14.308000000   4.840000000  11.385000000
  N   15.674000000   4.995000000  11.584000000
  C   12.267000000   4.473000000  12.910000000
  C   13.723000000   4.803000000   9.994000000
  C   16.684000000   5.158000000  10.526000000
  O   18.239000000   5.264000000  15.772000000
  C   18.797000000   4.111000000  16.395000000
  F   19.948000000   4.475000000  16.956000000
  F   19.064000000   3.150000000  15.508000000
  F   18.005000000   3.644000000  17.361000000
  C   17.021000000   6.595000000  10.099000000
  C   16.193000000   7.673000000  10.457000000
  C   16.464000000   8.974000000  10.028000000
  C   17.596000000   9.206000000   9.235000000
  C   18.430000000   8.151000000   8.876000000
  C   18.154000000   6.854000000   9.306000000
 Cl   19.256000000   5.605000000   8.843000000
  O   15.619000000   9.989000000  10.442000000
  C   15.222000000  11.002000000   9.499000000
  C   14.507000000  12.149000000  10.240000000
  C   14.275000000  10.401000000   8.436000000
  O   14.246000000  10.964000000   7.319000000
  O   13.584000000   9.403000000   8.750000000
  N   11.293000000   5.166000000  12.353000000
  O   10.091000000   4.780000000  12.967000000
  C   10.375000000   3.807000000  13.880000000
  C   11.748000000   3.532000000  13.850000000
  C    9.484000000   3.160000000  14.748000000
  C   10.027000000   2.190000000  15.611000000
  C   11.386000000   1.877000000  15.547000000
  C   12.260000000   2.525000000  14.680000000
  O    9.307000000   1.495000000  16.558000000
  C    8.021000000   1.969000000  16.919000000
  H   15.858000000   4.779000000  16.787000000
  H   13.748000000   4.620000000  15.550000000
  H   18.093000000   5.276000000  13.137000000
  H   14.106000000   5.621000000   9.381000000
  H   13.982000000   3.859000000   9.512000000
  H   12.635000000   4.882000000  10.007000000
  H   16.362000000   4.593000000   9.647000000
  H   17.597000000   4.674000000  10.880000000
  H   15.307000000   7.509000000  11.064000000
  H   17.853000000  10.210000000   8.910000000
  H   19.309000000   8.338000000   8.263000000
  H   16.103000000  11.409000000   8.996000000
  H   14.328000000  12.980000000   9.555000000
  H   13.542000000  11.829000000  10.630000000
  H   15.120000000  12.516000000  11.066000000
  H    8.430000000   3.422000000  14.746000000
  H   11.784000000   1.117000000  16.209000000
  H   13.318000000   2.268000000  14.671000000
  H    7.661000000   1.343000000  17.736000000
  H    8.085000000   3.008000000  17.255000000
  H    7.349000000   1.881000000  16.062000000
