52
charge=0
  C   23.745000000  42.332000000  -2.459000000
  H   24.362000000  41.851000000  -3.216000000
  H   23.651000000  43.390000000  -2.707000000
  C   24.437000000  42.208000000  -1.106000000
  H   23.760000000  42.557000000  -0.327000000
  H   24.706000000  41.168000000  -0.919000000
  C   25.712000000  43.082000000  -1.050000000
  O   26.035000000  43.722000000  -2.104000000
  O   26.386000000  43.118000000   0.019000000
  H   22.638000000  41.877000000  -2.473000000
  O   27.502000000  50.097000000  -3.597000000
  C   26.422000000  49.735000000  -2.752000000
  C   26.750000000  48.436000000  -1.986000000
  C   27.834000000  48.654000000  -0.899000000
  O   27.481000000  49.789000000  -0.105000000
  C   28.052000000  47.413000000   0.007000000
  O   29.427000000  47.337000000   0.401000000
  O   28.226000000  44.871000000  -0.294000000
  N   27.329000000  47.340000000  -2.795000000
  C   27.653000000  47.277000000  -4.100000000
  C   28.339000000  46.086000000  -4.255000000
  N   28.338000000  45.418000000  -3.068000000
  C   27.757000000  46.256000000  -2.182000000
  C   28.870000000  45.570000000  -5.553000000
  N   30.319000000  45.709000000  -5.629000000
  C   30.986000000  46.896000000  -5.849000000
  C   30.330000000  48.036000000  -6.337000000
  C   31.063000000  49.234000000  -6.547000000
  C   32.443000000  49.319000000  -6.274000000
  C   33.114000000  48.176000000  -5.789000000
  C   32.376000000  46.985000000  -5.588000000
  C   27.602000000  46.113000000  -0.684000000
  H   28.212000000  50.559000000  -3.036000000
  H   25.529000000  49.568000000  -3.363000000
  H   26.204000000  50.552000000  -2.059000000
  H   25.834000000  48.073000000  -1.515000000
  H   28.779000000  48.887000000  -1.403000000
  H   27.883000000  50.662000000  -0.457000000
  H   27.459000000  47.523000000   0.913000000
  H   29.665000000  46.404000000   0.201000000
  H   27.488000000  44.155000000  -0.273000000
  H   27.434000000  48.053000000  -4.798000000
  H   28.710000000  44.505000000  -2.852000000
  H   28.385000000  46.052000000  -6.408000000
  H   28.647000000  44.502000000  -5.625000000
  H   30.825000000  45.023000000  -5.057000000
  H   29.275000000  48.014000000  -6.580000000
  H   30.554000000  50.114000000  -6.929000000
  H   32.983000000  50.253000000  -6.430000000
  H   34.175000000  48.218000000  -5.544000000
  H   32.831000000  46.177000000  -5.114000000
  H   26.534000000  46.003000000  -0.463000000
