87
charge=0
  C   37.922000000  -6.198000000  45.129000000
  O   36.965000000  -6.740000000  45.710000000
  N   38.929000000  -5.600000000  45.778000000
  H   39.678000000  -5.173000000  45.247000000
  C   39.076000000  -5.687000000  47.231000000
  H   38.878000000  -6.723000000  47.515000000
  H   37.986000000  -6.164000000  43.960000000
  H   38.294000000  -5.040000000  47.823000000
  H   40.184000000  -5.447000000  47.543000000
  O   40.996000000  -5.279000000  41.757000000
  C   41.002000000  -5.755000000  40.625000000
  C   41.418000000  -7.145000000  40.515000000
  C   42.747000000  -7.508000000  41.109000000
  C   40.564000000  -8.053000000  39.952000000
  C   40.786000000  -9.519000000  39.760000000
  C   40.028000000  -9.916000000  38.490000000
  C   38.518000000 -10.061000000  38.660000000
  C   38.150000000 -11.051000000  39.778000000
  N   40.643000000  -4.978000000  39.591000000
  C   40.877000000  -5.232000000  38.261000000
  C   39.876000000  -4.922000000  37.356000000
  C   40.043000000  -5.148000000  35.988000000
  O   38.992000000  -4.863000000  35.163000000
  C   41.224000000  -5.701000000  35.498000000
  C   42.246000000  -6.033000000  36.413000000
  C   42.069000000  -5.774000000  37.777000000
  C   43.544000000  -6.674000000  35.966000000
  C   43.459000000  -8.217000000  35.860000000
  C   43.291000000  -8.920000000  37.219000000
  C   42.366000000  -8.663000000  34.846000000
  C   42.131000000 -10.163000000  34.705000000
  O   43.361000000 -10.836000000  34.361000000
  C   43.382000000 -12.207000000  34.692000000
  C   41.099000000 -10.492000000  33.626000000
  O   41.647000000  -9.995000000  32.385000000
  C   39.742000000  -9.842000000  33.921000000
  C   38.782000000 -10.265000000  32.814000000
  C   39.136000000 -10.387000000  35.210000000
  C   38.398000000  -9.710000000  36.137000000
  C   38.046000000  -8.249000000  36.016000000
  C   37.875000000 -10.497000000  37.318000000
  O   36.486000000 -10.225000000  37.433000000
  C   35.590000000 -11.043000000  36.665000000
  O   36.062000000 -11.894000000  35.929000000
  N   34.308000000 -10.774000000  36.857000000
  H   42.894000000  -8.584000000  41.194000000
  H   42.843000000  -7.096000000  42.116000000
  H   43.567000000  -7.097000000  40.517000000
  H   39.613000000  -7.675000000  39.583000000
  H   40.441000000 -10.065000000  40.625000000
  H   41.845000000  -9.747000000  39.631000000
  H   40.429000000 -10.876000000  38.151000000
  H   40.264000000  -9.190000000  37.710000000
  H   38.093000000  -9.091000000  38.923000000
  H   37.093000000 -11.321000000  39.736000000
  H   38.329000000 -10.615000000  40.761000000
  H   38.742000000 -11.965000000  39.700000000
  H   40.327000000  -4.054000000  39.817000000
  H   38.945000000  -4.490000000  37.707000000
  H   39.055000000  -5.429000000  34.346000000
  H   41.351000000  -5.873000000  34.434000000
  H   42.853000000  -6.034000000  38.479000000
  H   44.344000000  -6.461000000  36.667000000
  H   43.839000000  -6.262000000  34.997000000
  H   44.418000000  -8.558000000  35.457000000
  H   43.286000000 -10.006000000  37.125000000
  H   42.369000000  -8.594000000  37.689000000
  H   44.115000000  -8.657000000  37.886000000
  H   42.610000000  -8.218000000  33.881000000
  H   41.430000000  -8.234000000  35.194000000
  H   41.770000000 -10.555000000  35.660000000
  H   44.351000000 -12.619000000  34.400000000
  H   42.594000000 -12.747000000  34.161000000
  H   43.250000000 -12.324000000  35.772000000
  H   40.962000000 -11.575000000  33.556000000
  H   42.552000000 -10.394000000  32.338000000
  H   39.823000000  -8.758000000  33.901000000
  H   37.984000000  -9.526000000  32.737000000
  H   38.325000000 -11.233000000  33.036000000
  H   39.258000000 -10.357000000  31.840000000
  H   39.321000000 -11.449000000  35.369000000
  H   38.453000000  -7.763000000  35.133000000
  H   38.393000000  -7.693000000  36.889000000
  H   36.967000000  -8.133000000  35.965000000
  H   38.053000000 -11.569000000  37.191000000
  H   33.607000000 -11.314000000  36.360000000
  H   34.044000000 -10.069000000  37.516000000
