48
charge=-1
  C   22.358000000  -1.910000000  34.647000000
  O   21.337000000  -1.583000000  34.033000000
  N   22.388000000  -2.735000000  35.703000000
  H   23.197000000  -2.625000000  36.297000000
  C   21.873000000  -4.126000000  35.679000000
  H   22.768000000  -4.694000000  35.441000000
  H   23.407000000  -1.458000000  34.365000000
  H   21.035000000  -4.409000000  34.906000000
  H   21.581000000  -4.528000000  36.752000000
  C   20.244000000   1.668000000  36.833000000
  O   19.130000000   1.471000000  35.962000000
  C   17.974000000   2.016000000  36.494000000
  C   16.801000000   1.694000000  35.864000000
  C   15.568000000   2.155000000  36.286000000
  C   17.885000000   2.858000000  37.601000000
  C   16.624000000   3.333000000  38.023000000
  C   15.449000000   2.984000000  37.360000000
  C   14.032000000   3.454000000  37.703000000
  C   13.369000000   2.705000000  38.852000000
  C   13.762000000   3.375000000  40.168000000
  O   14.528000000   4.341000000  40.200000000
  C   13.182000000   2.849000000  41.463000000
  O   13.444000000   3.812000000  42.508000000
  C   11.667000000   2.729000000  41.295000000
  O   11.138000000   2.043000000  42.437000000
  C   11.243000000   2.027000000  39.981000000
  C   11.843000000   2.666000000  38.721000000
  C   11.461000000   1.807000000  37.496000000
  O   11.501000000   0.552000000  37.640000000
  O   11.061000000   2.420000000  36.467000000
  O   11.276000000   3.995000000  38.540000000
  H   20.063000000   1.160000000  37.786000000
  H   20.423000000   2.731000000  37.002000000
  H   21.130000000   1.231000000  36.364000000
  H   16.845000000   0.999000000  35.038000000
  H   14.680000000   1.828000000  35.750000000
  H   18.754000000   3.148000000  38.175000000
  H   16.575000000   3.996000000  38.883000000
  H   13.431000000   3.345000000  36.802000000
  H   14.027000000   4.533000000  37.868000000
  H   13.736000000   1.677000000  38.870000000
  H   13.647000000   1.879000000  41.656000000
  H   14.442000000   3.984000000  42.552000000
  H   11.249000000   3.743000000  41.271000000
  H   10.672000000   2.741000000  43.000000000
  H   10.154000000   2.029000000  39.904000000
  H   11.552000000   0.983000000  40.056000000
  H   10.903000000   4.059000000  37.618000000
