58
charge=0
  C    9.237000000  -0.157000000  45.354000000
  H    8.934000000  -1.191000000  45.525000000
  H    9.049000000   0.094000000  44.311000000
  C   10.735000000  -0.001000000  45.606000000
  H   11.006000000   1.054000000  45.537000000
  H   10.964000000  -0.362000000  46.610000000
  C   11.545000000  -0.789000000  44.616000000
  H   11.186000000  -1.814000000  44.607000000
  H   11.433000000  -0.374000000  43.613000000
  N   12.935000000  -0.791000000  45.038000000
  H   13.215000000  -1.573000000  45.629000000
  C   13.792000000   0.187000000  44.774000000
  N   13.414000000   1.274000000  44.093000000
  H   12.478000000   1.388000000  43.720000000
  H   14.088000000   2.013000000  43.917000000
  N   15.027000000   0.091000000  45.212000000
  H   15.333000000  -0.747000000  45.679000000
  H   15.697000000   0.801000000  44.913000000
  H    8.602000000   0.566000000  46.030000000
  C   20.244000000   1.668000000  36.833000000
  O   19.130000000   1.471000000  35.962000000
  C   17.974000000   2.016000000  36.494000000
  C   16.801000000   1.694000000  35.864000000
  C   15.568000000   2.155000000  36.286000000
  C   17.885000000   2.858000000  37.601000000
  C   16.624000000   3.333000000  38.023000000
  C   15.449000000   2.984000000  37.360000000
  C   14.032000000   3.454000000  37.703000000
  C   13.369000000   2.705000000  38.852000000
  C   13.762000000   3.375000000  40.168000000
  O   14.528000000   4.341000000  40.200000000
  C   13.182000000   2.849000000  41.463000000
  O   13.444000000   3.812000000  42.508000000
  C   11.667000000   2.729000000  41.295000000
  O   11.138000000   2.043000000  42.437000000
  C   11.243000000   2.027000000  39.981000000
  C   11.843000000   2.666000000  38.721000000
  C   11.461000000   1.807000000  37.496000000
  O   11.501000000   0.552000000  37.640000000
  O   11.061000000   2.420000000  36.467000000
  O   11.276000000   3.995000000  38.540000000
  H   20.063000000   1.160000000  37.786000000
  H   20.423000000   2.731000000  37.002000000
  H   21.130000000   1.231000000  36.364000000
  H   16.845000000   0.999000000  35.038000000
  H   14.680000000   1.828000000  35.750000000
  H   18.754000000   3.148000000  38.175000000
  H   16.575000000   3.996000000  38.883000000
  H   13.431000000   3.345000000  36.802000000
  H   14.027000000   4.533000000  37.868000000
  H   13.736000000   1.677000000  38.870000000
  H   13.647000000   1.879000000  41.656000000
  H   14.442000000   3.984000000  42.552000000
  H   11.249000000   3.743000000  41.271000000
  H   10.672000000   2.741000000  43.000000000
  H   10.154000000   2.029000000  39.904000000
  H   11.552000000   0.983000000  40.056000000
  H   10.903000000   4.059000000  37.618000000
