67
charge=1
  C    9.014000000  24.055000000  25.196000000
  H   10.038000000  24.326000000  24.937000000
  H    8.465000000  24.062000000  24.259000000
  C    8.508000000  25.206000000  26.065000000
  C    9.287000000  26.148000000  26.740000000
  H   10.365000000  26.169000000  26.733000000
  N    8.490000000  27.063000000  27.411000000
  H    8.844000000  27.864000000  27.943000000
  C    7.178000000  26.738000000  27.180000000
  C    6.023000000  27.364000000  27.631000000
  H    6.075000000  28.248000000  28.249000000
  C    4.822000000  26.816000000  27.257000000
  H    3.910000000  27.297000000  27.574000000
  C    4.750000000  25.647000000  26.425000000
  H    3.787000000  25.242000000  26.154000000
  C    5.914000000  25.024000000  25.961000000
  H    5.860000000  24.133000000  25.351000000
  C    7.152000000  25.563000000  26.336000000
  H    9.059000000  22.965000000  25.681000000
  C   -1.161000000  25.141000000  31.133000000
  C   -1.766000000  24.102000000  30.436000000
  C   -1.307000000  22.797000000  30.596000000
  C   -0.248000000  22.526000000  31.456000000
  C    0.356000000  23.566000000  32.157000000
  C   -0.100000000  24.869000000  31.990000000
  N    0.316000000  26.031000000  32.485000000
  C   -0.427000000  27.017000000  31.985000000
  C   -1.340000000  26.520000000  31.154000000
  C   -2.373000000  27.361000000  30.401000000
  C   -2.573000000  26.993000000  28.926000000
  O   -3.608000000  27.356000000  28.369000000
  N   -1.573000000  26.408000000  28.268000000
  C   -1.693000000  25.967000000  26.867000000
  C   -1.442000000  27.034000000  25.796000000
  N   -0.009000000  27.376000000  25.734000000
  C    0.261000000  28.452000000  24.762000000
  C    1.762000000  28.742000000  24.731000000
  C   -0.235000000  28.117000000  23.348000000
  O    0.566000000  27.082000000  22.769000000
  C   -1.695000000  27.658000000  23.401000000
  O   -2.152000000  27.208000000  22.124000000
  C   -1.798000000  26.506000000  24.400000000
  O   -3.119000000  25.968000000  24.323000000
  H   -2.646000000  24.296000000  29.826000000
  H   -1.979000000  22.003000000  30.308000000
  H    0.050000000  21.497000000  31.654000000
  H    1.172000000  23.354000000  32.847000000
  H    1.048000000  26.141000000  33.179000000
  H   -0.250000000  28.043000000  32.292000000
  H   -2.083000000  28.413000000  30.432000000
  H   -3.339000000  27.286000000  30.905000000
  H   -0.756000000  26.154000000  28.796000000
  H   -2.712000000  25.591000000  26.738000000
  H   -1.038000000  25.111000000  26.711000000
  H   -2.008000000  27.944000000  26.025000000
  H    0.525000000  26.497000000  25.528000000
  H    0.223000000  27.750000000  26.681000000
  H   -0.281000000  29.331000000  25.127000000
  H    1.988000000  29.497000000  23.978000000
  H    2.346000000  27.849000000  24.495000000
  H    2.097000000  29.123000000  25.698000000
  H   -0.173000000  29.012000000  22.720000000
  H    1.227000000  27.506000000  22.133000000
  H   -2.318000000  28.490000000  23.734000000
  H   -2.357000000  28.086000000  21.635000000
  H   -1.102000000  25.709000000  24.122000000
  H   -3.033000000  25.180000000  23.709000000
