67
charge=2
  C    3.885000000  21.912000000  30.530000000
  H    4.558000000  21.640000000  29.737000000
  H    2.860000000  21.678000000  30.237000000
  C    3.990000000  23.430000000  30.811000000
  H    3.527000000  23.626000000  31.781000000
  H    5.035000000  23.738000000  30.856000000
  C    3.259000000  24.237000000  29.749000000
  H    3.806000000  24.198000000  28.805000000
  H    2.254000000  23.832000000  29.614000000
  N    3.170000000  25.585000000  30.219000000
  H    3.790000000  25.845000000  30.977000000
  C    2.399000000  26.534000000  29.713000000
  N    2.417000000  27.753000000  30.242000000
  H    3.020000000  27.963000000  31.020000000
  H    1.822000000  28.455000000  29.812000000
  N    1.625000000  26.301000000  28.678000000
  H    1.537000000  25.376000000  28.262000000
  H    1.053000000  27.078000000  28.356000000
  H    4.195000000  21.237000000  31.452000000
  C   -1.161000000  25.141000000  31.133000000
  C   -1.766000000  24.102000000  30.436000000
  C   -1.307000000  22.797000000  30.596000000
  C   -0.248000000  22.526000000  31.456000000
  C    0.356000000  23.566000000  32.157000000
  C   -0.100000000  24.869000000  31.990000000
  N    0.316000000  26.031000000  32.485000000
  C   -0.427000000  27.017000000  31.985000000
  C   -1.340000000  26.520000000  31.154000000
  C   -2.373000000  27.361000000  30.401000000
  C   -2.573000000  26.993000000  28.926000000
  O   -3.608000000  27.356000000  28.369000000
  N   -1.573000000  26.408000000  28.268000000
  C   -1.693000000  25.967000000  26.867000000
  C   -1.442000000  27.034000000  25.796000000
  N   -0.009000000  27.376000000  25.734000000
  C    0.261000000  28.452000000  24.762000000
  C    1.762000000  28.742000000  24.731000000
  C   -0.235000000  28.117000000  23.348000000
  O    0.566000000  27.082000000  22.769000000
  C   -1.695000000  27.658000000  23.401000000
  O   -2.152000000  27.208000000  22.124000000
  C   -1.798000000  26.506000000  24.400000000
  O   -3.119000000  25.968000000  24.323000000
  H   -2.646000000  24.296000000  29.826000000
  H   -1.979000000  22.003000000  30.308000000
  H    0.050000000  21.497000000  31.654000000
  H    1.172000000  23.354000000  32.847000000
  H    1.048000000  26.141000000  33.179000000
  H   -0.250000000  28.043000000  32.292000000
  H   -2.083000000  28.413000000  30.432000000
  H   -3.339000000  27.286000000  30.905000000
  H   -0.756000000  26.154000000  28.796000000
  H   -2.712000000  25.591000000  26.738000000
  H   -1.038000000  25.111000000  26.711000000
  H   -2.008000000  27.944000000  26.025000000
  H    0.525000000  26.497000000  25.528000000
  H    0.223000000  27.750000000  26.681000000
  H   -0.281000000  29.331000000  25.127000000
  H    1.988000000  29.497000000  23.978000000
  H    2.346000000  27.849000000  24.495000000
  H    2.097000000  29.123000000  25.698000000
  H   -0.173000000  29.012000000  22.720000000
  H    1.227000000  27.506000000  22.133000000
  H   -2.318000000  28.490000000  23.734000000
  H   -2.357000000  28.086000000  21.635000000
  H   -1.102000000  25.709000000  24.122000000
  H   -3.033000000  25.180000000  23.709000000
