46
charge=0
  C   61.245000000   7.408000000   3.052000000
  O   61.407000000   8.177000000   3.991000000
  N   60.099000000   7.325000000   2.388000000
  H   60.020000000   6.694000000   1.595000000
  C   58.934000000   8.111000000   2.761000000
  H   59.196000000   9.162000000   2.752000000
  H   62.115000000   6.703000000   2.692000000
  H   58.592000000   7.814000000   3.838000000
  H   58.047000000   7.916000000   2.007000000
  C   55.148000000  -1.151000000   3.598000000
  N   55.745000000  -0.160000000   4.529000000
  C   57.201000000  -0.297000000   4.498000000
  C   57.527000000  -1.026000000   3.177000000
  C   56.284000000  -1.961000000   2.972000000
  C   55.568000000   1.233000000   4.368000000
  O   56.675000000   1.912000000   4.694000000
  C   57.787000000   1.094000000   4.728000000
  N   54.433000000   1.800000000   3.944000000
  C   54.119000000   3.119000000   3.910000000
  C   52.765000000   3.481000000   4.075000000
  C   52.454000000   4.837000000   4.038000000
  C   53.438000000   5.827000000   3.844000000
  C   54.761000000   5.480000000   3.684000000
  C   55.100000000   4.126000000   3.718000000
  C   51.703000000   2.428000000   4.283000000
 Cl   50.837000000   5.307000000   4.232000000
  O   58.704000000  -1.781000000   3.271000000
  C   53.147000000   7.204000000   3.805000000
  N   52.785000000   8.287000000   3.792000000
  C   58.319000000   1.238000000   6.141000000
  F   59.364000000   0.431000000   6.272000000
  F   57.407000000   0.941000000   7.077000000
  F   58.684000000   2.484000000   6.322000000
  H   54.586000000  -0.639000000   2.808000000
  H   54.470000000  -1.810000000   4.148000000
  H   57.529000000  -0.950000000   5.307000000
  H   57.589000000  -0.305000000   2.355000000
  H   56.087000000  -2.184000000   1.926000000
  H   56.452000000  -2.881000000   3.526000000
  H   58.507000000   1.399000000   3.971000000
  H   55.535000000   6.229000000   3.547000000
  H   56.139000000   3.869000000   3.557000000
  H   51.951000000   1.485000000   3.793000000
  H   50.730000000   2.716000000   3.883000000
  H   51.587000000   2.239000000   5.351000000
  H   59.457000000  -1.129000000   3.266000000
