77
charge=0
  C   14.543000000 -12.599000000  -5.047000000
  O   15.121000000 -12.972000000  -4.024000000
  N   13.820000000 -11.483000000  -5.113000000
  H   13.377000000 -11.204000000  -5.981000000
  C   13.695000000 -10.626000000  -3.957000000
  H   14.704000000 -10.429000000  -3.588000000
  H   14.623000000 -13.234000000  -6.011000000
  H   13.104000000 -11.146000000  -3.073000000
  H   13.204000000  -9.584000000  -4.202000000
  C   12.061000000   1.480000000   3.338000000
  C   12.007000000   2.338000000   2.209000000
  C   11.872000000   3.732000000   2.370000000
  N   11.824000000   4.587000000   1.297000000
  C   11.802000000   4.233000000   3.668000000
  C   11.856000000   3.399000000   4.800000000
  C   11.978000000   2.020000000   4.633000000
  N   12.029000000   1.217000000   5.702000000
  C   12.145000000  -0.120000000   5.559000000
  N   12.228000000  -0.677000000   4.344000000
  C   12.177000000   0.080000000   3.208000000
  N   12.266000000  -0.479000000   1.981000000
  C   12.043000000  -1.813000000   1.719000000
  C   12.991000000  -2.565000000   0.978000000
  C   10.858000000  -2.444000000   2.128000000
  C   10.626000000  -3.796000000   1.816000000
  C   11.577000000  -4.527000000   1.096000000
  C   12.769000000  -3.918000000   0.679000000
  N   13.616000000  -4.700000000  -0.019000000
  C   14.917000000  -4.936000000   0.164000000
  O   15.556000000  -4.414000000   1.073000000
  N   15.470000000  -5.774000000  -0.732000000
  C   16.729000000  -6.300000000  -0.726000000
  C   17.512000000  -6.502000000   0.364000000
  C   18.613000000  -7.173000000  -0.066000000
  C   19.824000000  -7.619000000   0.809000000
  C   19.335000000  -8.818000000   1.619000000
  C   21.084000000  -8.074000000   0.065000000
  C   20.242000000  -6.517000000   1.755000000
  N   18.451000000  -7.410000000  -1.365000000
  N   17.343000000  -6.931000000  -1.733000000
  C   16.879000000  -7.026000000  -2.995000000
  C   16.971000000  -8.291000000  -3.579000000
  C   16.522000000  -8.520000000  -4.869000000
  C   15.962000000  -7.481000000  -5.588000000
  C   15.502000000  -7.757000000  -7.024000000
  C   15.865000000  -6.204000000  -5.037000000
  C   16.314000000  -5.963000000  -3.723000000
  H   12.053000000   1.943000000   1.197000000
  H   11.864000000   5.592000000   1.457000000
  H   12.121000000   4.259000000   0.384000000
  H   11.705000000   5.307000000   3.814000000
  H   11.808000000   3.823000000   5.799000000
  H   12.230000000  -0.764000000   6.415000000
  H   12.829000000   0.045000000   1.328000000
  H   13.915000000  -2.096000000   0.652000000
  H   10.108000000  -1.889000000   2.687000000
  H    9.698000000  -4.270000000   2.135000000
  H   11.381000000  -5.570000000   0.863000000
  H   13.180000000  -5.263000000  -0.744000000
  H   14.849000000  -6.033000000  -1.492000000
  H   17.328000000  -6.192000000   1.381000000
  H   20.104000000  -9.167000000   2.314000000
  H   19.072000000  -9.651000000   0.961000000
  H   18.447000000  -8.566000000   2.205000000
  H   21.497000000  -7.251000000  -0.524000000
  H   20.852000000  -8.890000000  -0.624000000
  H   21.858000000  -8.426000000   0.752000000
  H   19.506000000  -6.432000000   2.552000000
  H   20.357000000  -5.570000000   1.228000000
  H   21.189000000  -6.764000000   2.237000000
  H   17.435000000  -9.073000000  -3.004000000
  H   16.627000000  -9.503000000  -5.313000000
  H   14.708000000  -7.066000000  -7.317000000
  H   15.119000000  -8.774000000  -7.124000000
  H   16.338000000  -7.631000000  -7.715000000
  H   15.445000000  -5.388000000  -5.624000000
  H   16.245000000  -4.966000000  -3.294000000
