85
charge=0
  C   21.103000000   4.574000000  37.290000000
  O   21.516000000   4.338000000  36.137000000
  N   20.852000000   5.796000000  37.763000000
  H   20.462000000   5.896000000  38.701000000
  C   21.258000000   7.012000000  37.077000000
  H   22.020000000   6.786000000  36.328000000
  H   20.865000000   3.709000000  38.040000000
  H   21.727000000   7.693000000  37.886000000
  H   20.339000000   7.537000000  36.536000000
  O   27.209000000   6.840000000  40.146000000
  C   28.235000000   6.429000000  39.628000000
  C   29.210000000   5.728000000  40.502000000
  C   29.629000000   4.439000000  40.216000000
  C   30.543000000   3.833000000  41.074000000
  C   31.046000000   4.534000000  42.185000000
  C   30.644000000   5.834000000  42.448000000
  C   31.151000000   6.608000000  43.635000000
  N   29.720000000   6.416000000  41.604000000
  N   28.499000000   6.620000000  38.261000000
  C   29.796000000   6.532000000  37.685000000
  C   30.828000000   7.374000000  38.126000000
  C   32.089000000   7.319000000  37.548000000
  C   27.378000000   6.922000000  37.346000000
  C   26.906000000   5.641000000  36.709000000
  S   25.201000000   5.508000000  36.712000000
  O   24.659000000   6.679000000  36.027000000
  O   24.674000000   5.504000000  38.056000000
  C   24.763000000   3.964000000  35.888000000
  C   25.762000000   3.566000000  34.806000000
  C   25.344000000   2.190000000  34.231000000
  C   25.835000000   4.618000000  33.666000000
  C   27.125000000   3.433000000  35.527000000
  C   27.702000000   4.677000000  36.187000000
  N   29.090000000   4.711000000  36.160000000
  C   30.043000000   5.616000000  36.656000000
  C   31.311000000   5.555000000  36.107000000
  O   31.604000000   4.678000000  35.105000000
  C   32.318000000   6.404000000  36.551000000
  C   27.867000000   8.041000000  36.396000000
  C   28.125000000   9.301000000  36.920000000
  F   27.937000000   9.496000000  38.223000000
  C   28.555000000  10.346000000  36.100000000
  C   28.735000000  10.129000000  34.733000000
  C   28.479000000   8.856000000  34.205000000
  C   28.042000000   7.826000000  35.030000000
  O   29.179000000  11.170000000  33.958000000
  C   29.440000000  11.041000000  32.543000000
  C   28.132000000  10.929000000  31.772000000
  C   28.023000000  10.031000000  30.726000000
  C   26.826000000   9.888000000  30.034000000
  C   25.729000000  10.663000000  30.382000000
  C   25.835000000  11.580000000  31.440000000
  C   27.030000000  11.707000000  32.137000000
  H   29.238000000   3.909000000  39.350000000
  H   30.881000000   2.815000000  40.877000000
  H   31.782000000   4.065000000  42.830000000
  H   30.910000000   7.669000000  43.540000000
  H   32.236000000   6.512000000  43.717000000
  H   30.701000000   6.231000000  44.556000000
  H   30.636000000   8.093000000  38.921000000
  H   32.886000000   7.971000000  37.904000000
  H   26.550000000   7.344000000  37.929000000
  H   23.771000000   4.110000000  35.466000000
  H   24.725000000   3.212000000  36.677000000
  H   26.099000000   1.805000000  33.544000000
  H   24.398000000   2.265000000  33.694000000
  H   25.220000000   1.456000000  35.031000000
  H   26.074000000   5.619000000  34.022000000
  H   24.875000000   4.674000000  33.146000000
  H   26.598000000   4.339000000  32.937000000
  H   27.844000000   3.053000000  34.796000000
  H   27.055000000   2.653000000  36.291000000
  H   29.496000000   3.995000000  35.567000000
  H   32.505000000   4.894000000  34.738000000
  H   33.312000000   6.335000000  36.115000000
  H   28.758000000  11.324000000  36.525000000
  H   28.610000000   8.648000000  33.149000000
  H   27.855000000   6.853000000  34.590000000
  H   30.082000000  10.170000000  32.382000000
  H   29.988000000  11.919000000  32.209000000
  H   28.878000000   9.427000000  30.439000000
  H   26.752000000   9.168000000  29.221000000
  H   24.799000000  10.513000000  29.849000000
  H   24.970000000  12.168000000  31.740000000
  H   27.090000000  12.381000000  32.988000000
