64
charge=1
  C   53.288000000  42.382000000  35.580000000
  H   54.257000000  42.799000000  35.303000000
  H   52.995000000  41.669000000  34.811000000
  C   52.295000000  43.515000000  35.658000000
  C   52.628000000  44.718000000  36.286000000
  H   53.624000000  44.852000000  36.687000000
  C   51.702000000  45.758000000  36.383000000
  H   51.993000000  46.690000000  36.830000000
  C   50.428000000  45.591000000  35.854000000
  O   49.497000000  46.601000000  35.939000000
  H   49.810000000  47.375000000  36.408000000
  C   50.080000000  44.406000000  35.229000000
  H   49.089000000  44.289000000  34.813000000
  C   51.006000000  43.373000000  35.145000000
  H   50.737000000  42.457000000  34.655000000
  H   53.395000000  41.857000000  36.625000000
  C   48.266000000  50.283000000  35.297000000
  C   47.255000000  50.901000000  34.571000000
  C   47.493000000  51.402000000  33.219000000
  N   48.635000000  51.125000000  32.553000000
  N   49.471000000  50.235000000  34.656000000
  C   49.554000000  50.476000000  33.342000000
  N   50.723000000  50.027000000  32.872000000
  C   51.382000000  49.508000000  33.993000000
  C   50.590000000  49.615000000  35.121000000
  C   52.697000000  48.826000000  33.986000000
  O   53.110000000  48.159000000  33.052000000
  N   53.463000000  49.023000000  35.094000000
  C   46.425000000  52.204000000  32.527000000
  C   48.046000000  49.885000000  36.659000000
  C   45.905000000  51.099000000  35.196000000
  N   45.972000000  52.182000000  36.191000000
  C   47.462000000  48.647000000  36.936000000
  C   47.399000000  48.190000000  38.246000000
  C   47.891000000  48.969000000  39.286000000
  C   48.445000000  50.217000000  39.023000000
  C   48.532000000  50.670000000  37.712000000
 Cl   49.277000000  52.201000000  37.410000000
 Cl   47.850000000  48.346000000  40.889000000
  C   53.660000000  50.386000000  35.655000000
  C   54.998000000  51.013000000  35.188000000
  O   56.098000000  50.091000000  35.437000000
  C   55.931000000  48.762000000  34.869000000
  C   54.616000000  48.153000000  35.399000000
  H   50.736000000  49.329000000  36.157000000
  H   46.864000000  52.839000000  31.756000000
  H   45.894000000  52.869000000  33.209000000
  H   45.704000000  51.545000000  32.042000000
  H   45.572000000  50.192000000  35.710000000
  H   45.149000000  51.376000000  34.457000000
  H   45.002000000  52.424000000  36.508000000
  H   46.362000000  53.061000000  35.811000000
  H   46.429000000  51.960000000  37.079000000
  H   47.092000000  48.020000000  36.124000000
  H   46.976000000  47.217000000  38.464000000
  H   48.844000000  50.816000000  39.837000000
  H   53.665000000  50.347000000  36.741000000
  H   52.853000000  51.059000000  35.359000000
  H   55.185000000  51.947000000  35.725000000
  H   54.953000000  51.222000000  34.115000000
  H   56.782000000  48.139000000  35.159000000
  H   55.893000000  48.835000000  33.778000000
  H   54.469000000  47.163000000  34.953000000
  H   54.695000000  48.026000000  36.483000000
