56
charge=-1
  C   19.101000000 -40.900000000  13.120000000
  H   20.187000000 -40.898000000  12.978000000
  H   18.755000000 -41.931000000  13.060000000
  C   18.431000000 -40.094000000  12.057000000
  C   18.827000000 -38.874000000  11.561000000
  H   19.720000000 -38.342000000  11.864000000
  N   17.914000000 -38.422000000  10.637000000
  H   17.935000000 -37.517000000  10.191000000
  C   16.894000000 -39.337000000  10.534000000
  C   15.745000000 -39.323000000   9.733000000
  H   15.565000000 -38.513000000   9.052000000
  C   14.889000000 -40.384000000   9.835000000
  H   13.995000000 -40.403000000   9.229000000
  C   15.147000000 -41.453000000  10.711000000
  H   14.448000000 -42.273000000  10.768000000
  C   16.297000000 -41.472000000  11.507000000
  H   16.502000000 -42.308000000  12.154000000
  C   17.185000000 -40.401000000  11.422000000
  H   18.833000000 -40.447000000  14.179000000
  N   23.442000000 -27.890000000  10.261000000
  C   23.400000000 -26.869000000  11.151000000
  N   23.205000000 -27.094000000  12.463000000
  C   23.047000000 -28.383000000  12.944000000
  C   23.088000000 -29.449000000  12.065000000
  C   23.297000000 -29.172000000  10.678000000
  C   23.775000000 -30.387000000  20.422000000
  O   22.501000000 -34.780000000  15.499000000
  O   22.112000000 -35.584000000  13.321000000
  C   23.393000000 -29.468000000  19.747000000
  C   21.958000000 -26.161000000  18.636000000
  C   22.381000000 -27.186000000  19.465000000
  C   22.054000000 -26.279000000  17.257000000
  C   22.788000000 -33.218000000  12.302000000
  C   22.955000000 -31.942000000  11.751000000
  C   23.015000000 -28.462000000  17.548000000
  C   22.558000000 -32.303000000  14.530000000
  N   22.691000000 -29.908000000  14.793000000
  N   22.731000000 -27.688000000  15.348000000
  C   22.410000000 -34.787000000  14.244000000
  C   22.920000000 -28.337000000  18.913000000
  C   22.585000000 -27.439000000  16.727000000
  C   22.600000000 -33.411000000  13.686000000
  C   22.832000000 -28.663000000  14.332000000
  C   22.726000000 -31.004000000  13.965000000
  C   22.910000000 -30.809000000  12.613000000
  H   23.532000000 -25.850000000  10.801000000
  H   23.338000000 -29.935000000   9.907000000
  H   24.075000000 -31.251000000  20.969000000
  H   21.535000000 -25.256000000  19.072000000
  H   22.284000000 -27.087000000  20.544000000
  H   21.712000000 -25.475000000  16.609000000
  H   22.832000000 -34.079000000  11.637000000
  H   23.110000000 -31.852000000  10.680000000
  H   23.425000000 -29.374000000  17.130000000
  H   22.405000000 -32.396000000  15.602000000
  H   22.663000000 -26.808000000  14.842000000
