56
charge=0
  C   26.696000000 -30.561000000  24.388000000
  H   26.899000000 -31.621000000  24.443000000
  H   27.455000000 -30.005000000  23.852000000
  C   26.687000000 -30.018000000  25.787000000
  H   26.593000000 -28.934000000  25.786000000
  H   25.853000000 -30.443000000  26.349000000
  C   27.981000000 -30.430000000  26.478000000
  H   28.054000000 -31.517000000  26.520000000
  H   28.802000000 -30.046000000  25.888000000
  N   28.080000000 -29.892000000  27.823000000
  H   27.264000000 -29.961000000  28.419000000
  C   29.176000000 -29.349000000  28.345000000
  N   30.302000000 -29.266000000  27.650000000
  H   30.431000000 -29.720000000  26.747000000
  H   31.112000000 -28.847000000  28.080000000
  N   29.140000000 -28.890000000  29.582000000
  H   28.299000000 -28.972000000  30.131000000
  H   29.967000000 -28.485000000  29.990000000
  H   25.741000000 -30.341000000  23.732000000
  N   23.442000000 -27.890000000  10.261000000
  C   23.400000000 -26.869000000  11.151000000
  N   23.205000000 -27.094000000  12.463000000
  C   23.047000000 -28.383000000  12.944000000
  C   23.088000000 -29.449000000  12.065000000
  C   23.297000000 -29.172000000  10.678000000
  C   23.775000000 -30.387000000  20.422000000
  O   22.501000000 -34.780000000  15.499000000
  O   22.112000000 -35.584000000  13.321000000
  C   23.393000000 -29.468000000  19.747000000
  C   21.958000000 -26.161000000  18.636000000
  C   22.381000000 -27.186000000  19.465000000
  C   22.054000000 -26.279000000  17.257000000
  C   22.788000000 -33.218000000  12.302000000
  C   22.955000000 -31.942000000  11.751000000
  C   23.015000000 -28.462000000  17.548000000
  C   22.558000000 -32.303000000  14.530000000
  N   22.691000000 -29.908000000  14.793000000
  N   22.731000000 -27.688000000  15.348000000
  C   22.410000000 -34.787000000  14.244000000
  C   22.920000000 -28.337000000  18.913000000
  C   22.585000000 -27.439000000  16.727000000
  C   22.600000000 -33.411000000  13.686000000
  C   22.832000000 -28.663000000  14.332000000
  C   22.726000000 -31.004000000  13.965000000
  C   22.910000000 -30.809000000  12.613000000
  H   23.532000000 -25.850000000  10.801000000
  H   23.338000000 -29.935000000   9.907000000
  H   24.075000000 -31.251000000  20.969000000
  H   21.535000000 -25.256000000  19.072000000
  H   22.284000000 -27.087000000  20.544000000
  H   21.712000000 -25.475000000  16.609000000
  H   22.832000000 -34.079000000  11.637000000
  H   23.110000000 -31.852000000  10.680000000
  H   23.425000000 -29.374000000  17.130000000
  H   22.405000000 -32.396000000  15.602000000
  H   22.663000000 -26.808000000  14.842000000
