100
charge=1
  C   32.681000000  -0.437000000   7.336000000
  H   33.480000000  -1.148000000   7.123000000
  H   32.430000000  -0.480000000   8.396000000
  H   31.798000000  -0.707000000   6.753000000
  H   33.046000000   0.651000000   7.031000000
  C   49.537000000  -2.555000000   8.271000000
  C   48.944000000  -3.578000000   9.239000000
  C   50.068000000  -4.459000000   9.792000000
  C   48.182000000  -2.849000000  10.347000000
  N   47.110000000  -2.011000000   9.782000000
  C   45.826000000  -2.355000000  10.413000000
  O   45.802000000  -2.895000000  11.522000000
  C   44.679000000  -1.443000000   9.943000000
  C   44.778000000  -0.093000000  10.669000000
  C   44.137000000  -0.134000000  12.057000000
  O   46.119000000   0.411000000  10.699000000
  N   43.335000000  -2.022000000  10.097000000
  C   43.190000000  -3.213000000   9.245000000
  C   42.596000000  -4.415000000   9.986000000
  C   42.416000000  -5.596000000   9.026000000
  C   41.714000000  -6.648000000   9.612000000
  C   40.702000000  -7.296000000   8.911000000
  C   39.955000000  -8.305000000   9.512000000
  C   40.210000000  -8.671000000  10.829000000
  C   41.218000000  -8.021000000  11.533000000
  C   41.972000000  -7.022000000  10.927000000
  N   41.308000000  -4.117000000  10.629000000
  C   41.257000000  -3.741000000  11.915000000
  O   42.268000000  -3.563000000  12.592000000
  C   39.977000000  -3.554000000  12.431000000
  C   38.982000000  -4.440000000  12.033000000
  C   39.737000000  -2.701000000  13.506000000
  C   38.508000000  -2.697000000  14.165000000
  N   38.332000000  -2.031000000  15.309000000
  C   39.484000000  -1.198000000  15.685000000
  S   36.931000000  -1.184000000  15.461000000
  O   37.220000000   0.231000000  15.963000000
  O   36.190000000  -1.102000000  14.124000000
  C   35.886000000  -2.018000000  16.638000000
  C   37.545000000  -3.622000000  13.775000000
  C   37.767000000  -4.486000000  12.707000000
  C   36.729000000  -5.276000000  12.227000000
  O   35.977000000  -5.860000000  13.006000000
  N   36.709000000  -5.492000000  10.904000000
  C   35.656000000  -6.318000000  10.294000000
  C   36.284000000  -7.487000000   9.532000000
  C   34.831000000  -5.573000000   9.454000000
  C   33.470000000  -5.497000000   9.724000000
  C   32.649000000  -4.640000000   8.994000000
  C   33.190000000  -3.850000000   7.986000000
  C   34.552000000  -3.928000000   7.707000000
  C   35.366000000  -4.793000000   8.432000000
  H   50.126000000  -3.056000000   7.499000000
  H   50.197000000  -1.858000000   8.795000000
  H   48.765000000  -1.975000000   7.763000000
  H   48.246000000  -4.218000000   8.693000000
  H   49.653000000  -5.255000000  10.412000000
  H   50.765000000  -3.876000000  10.398000000
  H   50.627000000  -4.931000000   8.980000000
  H   48.873000000  -2.202000000  10.897000000
  H   47.841000000  -3.620000000  11.039000000
  H   47.163000000  -1.557000000   8.880000000
  H   44.840000000  -1.272000000   8.877000000
  H   44.198000000   0.625000000  10.080000000
  H   44.668000000   0.551000000  12.722000000
  H   44.124000000  -1.170000000  12.375000000
  H   43.098000000   0.197000000  11.996000000
  H   46.641000000  -0.080000000  11.374000000
  H   42.595000000  -1.337000000   9.840000000
  H   43.142000000  -2.301000000  11.085000000
  H   44.166000000  -3.488000000   8.836000000
  H   42.545000000  -2.935000000   8.403000000
  H   43.325000000  -4.702000000  10.742000000
  H   43.391000000  -5.953000000   8.689000000
  H   41.887000000  -5.243000000   8.137000000
  H   40.494000000  -7.004000000   7.890000000
  H   39.171000000  -8.810000000   8.952000000
  H   39.634000000  -9.466000000  11.300000000
  H   41.383000000  -8.371000000  12.535000000
  H   42.757000000  -6.560000000  11.511000000
  H   40.447000000  -4.272000000  10.122000000
  H   39.193000000  -5.215000000  11.294000000
  H   40.588000000  -2.098000000  13.795000000
  H   40.317000000  -1.857000000  15.934000000
  H   39.295000000  -0.628000000  16.600000000
  H   39.790000000  -0.518000000  14.891000000
  H   35.007000000  -1.389000000  16.773000000
  H   36.459000000  -2.104000000  17.561000000
  H   35.626000000  -2.994000000  16.234000000
  H   36.600000000  -3.693000000  14.304000000
  H   37.369000000  -5.020000000  10.306000000
  H   35.046000000  -6.777000000  11.078000000
  H   35.520000000  -8.103000000   9.064000000
  H   36.860000000  -8.117000000  10.211000000
  H   36.958000000  -7.132000000   8.749000000
  H   33.083000000  -6.062000000  10.554000000
  H   31.602000000  -4.593000000   9.145000000
  H   32.544000000  -3.208000000   7.394000000
  H   34.975000000  -3.316000000   6.915000000
  H   36.428000000  -4.833000000   8.207000000
