281
charge=-2
  N    1.582000000  11.950000000  17.761000000
  C    0.476000000  11.034000000  17.521000000
  C    1.367000000  13.194000000  18.153000000
  O    0.234000000  13.706000000  18.196000000
  H    2.515000000  11.563000000  17.761000000
  H   -0.338000000  11.550000000  17.016000000
  H    2.304000000  13.791000000  18.493000000
  H    0.089000000  10.638000000  18.557000000
  N   -0.916000000   8.100000000   0.919000000
  C   -0.979000000   7.664000000   2.303000000
  C   -0.288000000   9.214000000   0.585000000
  O    0.349000000   9.878000000   1.383000000
  H   -1.410000000   7.548000000   0.226000000
  H   -0.890000000   8.546000000   2.937000000
  H   -0.337000000   9.510000000  -0.535000000
  H   -0.081000000   6.960000000   2.598000000
  C    2.509000000  15.951000000   4.970000000
  H    3.575000000  15.927000000   5.190000000
  H    1.939000000  15.929000000   5.896000000
  H    2.264000000  15.084000000   4.365000000
  H    2.254000000  16.926000000   4.368000000
  C    1.024000000  13.258000000   1.606000000
  C    1.737000000  12.454000000   2.653000000
  C    0.892000000  12.293000000   3.877000000
  N   -0.006000000  11.316000000   3.856000000
  O    1.035000000  13.036000000   4.830000000
  H    0.810000000  14.256000000   1.992000000
  H    0.082000000  12.769000000   1.371000000
  H    2.022000000  11.478000000   2.262000000
  H    2.653000000  12.970000000   2.940000000
  H   -0.002000000  10.666000000   3.084000000
  H   -0.521000000  11.128000000   4.707000000
  H    1.646000000  13.339000000   0.624000000
  C   -1.521000000  22.377000000   9.339000000
  C   -0.248000000  21.777000000   9.994000000
  C   -0.529000000  20.756000000  11.083000000
  N    0.665000000  19.954000000  11.321000000
  C    0.735000000  18.626000000  11.366000000
  N   -0.336000000  17.849000000  11.260000000
  N    1.916000000  18.071000000  11.533000000
  H   -2.067000000  22.905000000  10.120000000
  H   -2.150000000  21.580000000   8.963000000
  H    0.323000000  21.284000000   9.206000000
  H    0.365000000  22.582000000  10.403000000
  H   -0.828000000  21.272000000  11.998000000
  H   -1.357000000  20.123000000  10.761000000
  H    1.539000000  20.455000000  11.376000000
  H   -1.269000000  18.230000000  11.253000000
  H   -0.226000000  16.836000000  11.153000000
  H    2.756000000  18.618000000  11.462000000
  H    1.964000000  17.059000000  11.597000000
  H   -1.290000000  23.138000000   8.465000000
  C    5.555000000  16.461000000   7.571000000
  C    4.293000000  15.727000000   7.903000000
  C    3.918000000  14.442000000   7.682000000
  N    3.187000000  16.366000000   8.429000000
  C    2.202000000  15.493000000   8.569000000
  N    2.620000000  14.313000000   8.129000000
  H    5.449000000  17.469000000   7.969000000
  H    5.644000000  16.551000000   6.489000000
  H    4.519000000  13.661000000   7.242000000
  H    1.208000000  15.707000000   8.936000000
  H    2.042000000  13.475000000   8.075000000
  H    6.552000000  15.992000000   8.033000000
  C    7.929000000  11.814000000   7.291000000
  C    7.025000000  11.773000000   8.473000000
  C    7.131000000  12.477000000   9.642000000
  C    5.869000000  10.946000000   8.603000000
  C    5.326000000  11.181000000   9.885000000
  C    5.237000000  10.009000000   7.756000000
  N    6.105000000  12.131000000  10.492000000
  C    4.177000000  10.530000000  10.334000000
  C    4.104000000   9.358000000   8.219000000
  C    3.568000000   9.639000000   9.484000000
  H    7.334000000  11.936000000   6.385000000
  H    8.383000000  10.825000000   7.213000000
  H    7.925000000  13.160000000   9.908000000
  H    6.023000000  12.463000000  11.450000000
  H    5.638000000   9.796000000   6.775000000
  H    3.782000000  10.731000000  11.313000000
  H    3.628000000   8.622000000   7.594000000
  H    2.674000000   9.127000000   9.806000000
  H    8.800000000  12.608000000   7.330000000
  C    4.765000000  15.636000000  11.657000000
  C    3.404000000  14.946000000  11.683000000
  N    3.316000000  13.740000000  11.108000000
  O    2.440000000  15.505000000  12.201000000
  H    4.627000000  16.629000000  11.239000000
  H    5.447000000  15.102000000  10.996000000
  H    2.391000000  13.328000000  11.013000000
  H    4.096000000  13.330000000  10.627000000
  H    5.230000000  15.742000000  12.738000000
  C    4.041000000  11.801000000  14.280000000
  C    2.651000000  12.415000000  14.260000000
  C    1.605000000  11.544000000  13.614000000
  O    1.932000000  10.674000000  12.768000000
  O    0.427000000  11.744000000  13.969000000
  H    4.418000000  11.724000000  13.261000000
  H    3.970000000  10.807000000  14.712000000
  H    2.356000000  12.616000000  15.290000000
  H    2.675000000  13.374000000  13.752000000
  H    4.779000000  12.438000000  14.936000000
  C    5.231000000   8.142000000  13.203000000
  C    5.134000000   7.388000000  11.873000000
  C    3.895000000   8.063000000  13.907000000
  H    5.479000000   9.184000000  13.002000000
  H    4.351000000   7.821000000  11.258000000
  H    6.073000000   7.447000000  11.324000000
  H    4.887000000   6.346000000  12.053000000
  H    3.128000000   8.500000000  13.279000000
  H    3.635000000   7.022000000  14.099000000
  H    3.934000000   8.597000000  14.851000000
  H    6.094000000   7.659000000  13.891000000
  C    6.494000000   3.823000000  11.924000000
  C    5.906000000   3.062000000  10.693000000
  C    5.455000000   3.789000000  13.062000000
  H    6.684000000   4.857000000  11.640000000
  H    4.976000000   3.535000000  10.378000000
  H    6.604000000   3.081000000   9.860000000
  H    5.700000000   2.029000000  10.970000000
  H    4.502000000   4.185000000  12.712000000
  H    5.302000000   2.764000000  13.398000000
  H    5.789000000   4.387000000  13.907000000
  H    7.516000000   3.328000000  12.296000000
  C    7.788000000   4.934000000   7.773000000
  C    6.299000000   5.065000000   7.821000000
  C    5.326000000   4.337000000   7.230000000
  N    5.664000000   6.092000000   8.480000000
  C    4.357000000   5.968000000   8.325000000
  N    4.122000000   4.921000000   7.559000000
  H    8.153000000   4.728000000   8.780000000
  H    8.193000000   5.902000000   7.476000000
  H    5.452000000   3.482000000   6.593000000
  H    3.631000000   6.689000000   8.656000000
  H    3.205000000   4.614000000   7.257000000
  H    8.152000000   4.099000000   7.039000000
  C    0.889000000   9.831000000  16.659000000
  C    2.159000000   9.155000000  17.149000000
  N    2.027000000   7.927000000  17.671000000
  O    3.248000000   9.715000000  17.038000000
  H    0.070000000   9.112000000  16.624000000
  H    1.077000000  10.143000000  15.647000000
  H    2.835000000   7.491000000  18.087000000
  H    1.123000000   7.482000000  17.725000000
  C   -1.940000000  13.709000000  15.340000000
  C   -1.227000000  14.799000000  14.563000000
  N   -0.292000000  14.378000000  13.712000000
  O   -1.511000000  16.006000000  14.699000000
  H   -1.197000000  13.094000000  15.841000000
  H   -2.477000000  13.072000000  14.640000000
  H    0.195000000  15.022000000  13.114000000
  H   -0.101000000  13.379000000  13.648000000
  H   -2.708000000  14.125000000  16.143000000
  C   -6.531000000   8.522000000  13.950000000
  C   -5.911000000   9.585000000  13.080000000
  C   -4.764000000  10.255000000  13.481000000
  C   -6.475000000   9.913000000  11.859000000
  C   -4.193000000  11.225000000  12.680000000
  C   -5.915000000  10.891000000  11.059000000
  C   -4.774000000  11.539000000  11.472000000
  O   -4.220000000  12.499000000  10.658000000
  H   -5.740000000   7.905000000  14.379000000
  H   -7.137000000   7.875000000  13.315000000
  H   -4.301000000  10.007000000  14.425000000
  H   -7.356000000   9.385000000  11.527000000
  H   -3.288000000  11.732000000  12.984000000
  H   -6.360000000  11.139000000  10.106000000
  H   -3.333000000  12.844000000  10.907000000
  H   -7.222000000   8.941000000  14.827000000
  C   -7.023000000   2.882000000   8.579000000
  C   -6.744000000   4.192000000   7.801000000
  S   -5.628000000   4.008000000   6.396000000
  C   -4.039000000   3.726000000   7.190000000
  H   -7.661000000   3.110000000   9.430000000
  H   -6.069000000   2.532000000   8.972000000
  H   -7.684000000   4.603000000   7.450000000
  H   -6.303000000   4.907000000   8.496000000
  H   -3.246000000   3.742000000   6.446000000
  H   -3.847000000   4.517000000   7.915000000
  H   -4.037000000   2.759000000   7.693000000
  H   -7.502000000   1.996000000   7.964000000
  C   -8.339000000   3.210000000  12.649000000
  C   -6.919000000   3.177000000  12.094000000
  C   -6.100000000   2.084000000  11.993000000
  C   -6.159000000   4.291000000  11.626000000
  C   -4.892000000   3.797000000  11.234000000
  C   -6.433000000   5.665000000  11.470000000
  N   -4.892000000   2.446000000  11.455000000
  C   -3.883000000   4.631000000  10.702000000
  C   -5.427000000   6.503000000  10.946000000
  C   -4.176000000   5.970000000  10.551000000
  H   -8.977000000   3.786000000  11.980000000
  H   -8.297000000   3.733000000  13.592000000
  H   -6.362000000   1.073000000  12.281000000
  H   -4.121000000   1.808000000  11.290000000
  H   -7.394000000   6.067000000  11.756000000
  H   -2.921000000   4.230000000  10.417000000
  H   -5.613000000   7.561000000  10.834000000
  H   -3.401000000   6.623000000  10.204000000
  H   -8.818000000   2.142000000  12.841000000
  C   -3.694000000  15.253000000  12.313000000
  C   -2.589000000  15.831000000  11.446000000
  C   -1.611000000  14.784000000  10.941000000
  O   -1.984000000  13.586000000  10.869000000
  O   -0.482000000  15.184000000  10.616000000
  H   -3.309000000  14.715000000  13.168000000
  H   -4.238000000  14.553000000  11.707000000
  H   -3.018000000  16.404000000  10.625000000
  H   -2.056000000  16.480000000  12.123000000
  H   -4.540000000  16.021000000  12.641000000
  C   -5.683000000  14.541000000   8.851000000
  C   -4.833000000  13.913000000   7.849000000
  C   -5.106000000  12.794000000   7.102000000
  C   -3.591000000  14.429000000   7.370000000
  C   -3.147000000  13.568000000   6.340000000
  C   -2.811000000  15.542000000   7.707000000
  N   -4.088000000  12.577000000   6.198000000
  C   -1.950000000  13.778000000   5.660000000
  C   -1.610000000  15.730000000   7.037000000
  C   -1.198000000  14.862000000   6.018000000
  H   -5.058000000  15.035000000   9.593000000
  H   -6.297000000  13.796000000   9.359000000
  H   -5.986000000  12.185000000   7.233000000
  H   -4.038000000  11.791000000   5.566000000
  H   -3.131000000  16.226000000   8.471000000
  H   -1.648000000  13.128000000   4.858000000
  H   -0.986000000  16.574000000   7.296000000
  H   -0.270000000  15.061000000   5.505000000
  H   -6.355000000  15.354000000   8.307000000
  C   -2.711000000  13.170000000  -0.172000000
  C   -2.752000000  12.900000000   1.303000000
  N   -2.380000000  11.812000000   1.753000000
  O   -3.214000000  13.869000000   2.067000000
  H   -1.718000000  13.386000000  -0.424000000
  H   -3.283000000  14.076000000  -0.368000000
  H   -2.443000000  11.681000000   2.750000000
  H   -2.006000000  11.087000000   1.170000000
  H   -3.169000000  12.291000000  -0.811000000
  C   -2.361000000   7.054000000   2.606000000
  C   -2.594000000   6.601000000   4.075000000
  C   -2.182000000   7.623000000   5.140000000
  O   -2.417000000   8.855000000   4.960000000
  O   -1.672000000   7.180000000   6.195000000
  H   -3.120000000   7.798000000   2.359000000
  H   -2.529000000   6.190000000   1.966000000
  H   -3.659000000   6.417000000   4.206000000
  H   -2.106000000   5.649000000   4.272000000
  C    2.824000000   6.693000000   4.488000000
  C    2.772000000   8.143000000   4.932000000
  C    1.823000000   8.738000000   5.733000000
  C    3.685000000   9.196000000   4.540000000
  C    3.237000000  10.395000000   5.153000000
  C    4.833000000   9.241000000   3.704000000
  N    2.118000000  10.090000000   5.892000000
  C    3.907000000  11.631000000   4.985000000
  C    5.512000000  10.461000000   3.558000000
  C    5.040000000  11.643000000   4.201000000
  H    2.040000000   6.140000000   5.008000000
  H    3.796000000   6.287000000   4.770000000
  H    0.978000000   8.227000000   6.177000000
  H    1.580000000  10.750000000   6.451000000
  H    5.194000000   8.349000000   3.221000000
  H    3.557000000  12.527000000   5.475000000
  H    6.404000000  10.508000000   2.950000000
  H    5.588000000  12.568000000   4.080000000
  H    2.671000000   6.603000000   3.306000000
  C   -7.224000000  11.112000000   4.869000000
  C   -6.892000000   9.983000000   5.783000000
  C   -6.130000000   8.903000000   5.339000000
  C   -7.367000000   9.977000000   7.098000000
  C   -5.845000000   7.842000000   6.178000000
  C   -7.076000000   8.929000000   7.953000000
  C   -6.303000000   7.858000000   7.511000000
  H   -6.390000000  11.287000000   4.187000000
  H   -7.302000000  12.006000000   5.486000000
  H   -5.763000000   8.883000000   4.323000000
  H   -7.970000000  10.800000000   7.454000000
  H   -5.260000000   7.006000000   5.824000000
  H   -7.440000000   8.946000000   8.970000000
  H   -6.056000000   7.048000000   8.180000000
  H   -8.233000000  10.966000000   4.242000000
