285
charge=-2
  N   30.256000000  53.999000000   0.668000000
  C   29.587000000  54.614000000  -0.526000000
  C   30.783000000  54.784000000   1.603000000
  O   30.625000000  55.985000000   1.604000000
  H   30.370000000  52.997000000   0.720000000
  H   30.215000000  55.457000000  -0.776000000
  H   31.378000000  54.280000000   2.485000000
  H   28.481000000  55.014000000  -0.302000000
  N   24.673000000  43.099000000  -9.105000000
  C   24.713000000  44.527000000  -9.223000000
  C   23.530000000  42.522000000  -8.774000000
  O   22.476000000  43.176000000  -8.571000000
  H   25.531000000  42.563000000  -9.125000000
  H   23.819000000  45.000000000  -8.819000000
  H   23.584000000  41.373000000  -8.668000000
  H   24.710000000  44.818000000 -10.360000000
  N   30.423000000  54.965000000  -6.830000000
  C   31.292000000  55.265000000  -7.943000000
  C   29.643000000  55.882000000  -6.265000000
  O   29.557000000  57.046000000  -6.665000000
  H   30.427000000  54.012000000  -6.494000000
  H   31.934000000  56.118000000  -7.710000000
  H   28.994000000  55.516000000  -5.360000000
  H   30.659000000  55.536000000  -8.891000000
  C   30.679000000  53.096000000   3.502000000
  C   30.812000000  51.740000000   2.882000000
  C   29.964000000  51.142000000   1.983000000
  C   31.854000000  50.802000000   3.132000000
  C   31.605000000  49.676000000   2.329000000
  C   32.978000000  50.795000000   4.006000000
  N   30.436000000  49.903000000   1.640000000
  C   32.447000000  48.554000000   2.325000000
  C   33.810000000  49.697000000   4.003000000
  C   33.554000000  48.587000000   3.152000000
  H   30.997000000  53.017000000   4.543000000
  H   29.632000000  53.413000000   3.505000000
  H   29.059000000  51.590000000   1.599000000
  H   29.943000000  49.233000000   1.053000000
  H   33.172000000  51.600000000   4.684000000
  H   32.231000000  47.702000000   1.704000000
  H   34.657000000  49.675000000   4.674000000
  H   34.231000000  47.747000000   3.164000000
  H   31.356000000  53.888000000   2.927000000
  C   29.720000000  53.729000000  -1.782000000
  C   29.100000000  52.328000000  -1.621000000
  O   29.439000000  51.434000000  -2.417000000
  O   28.290000000  52.130000000  -0.683000000
  H   29.197000000  54.223000000  -2.590000000
  H   30.777000000  53.644000000  -2.046000000
  C   25.370000000  54.640000000   1.690000000
  C   25.910000000  53.314000000   2.219000000
  C   26.046000000  52.158000000   1.535000000
  C   26.439000000  53.061000000   3.541000000
  C   26.853000000  51.721000000   3.568000000
  C   26.567000000  53.832000000   4.710000000
  N   26.618000000  51.192000000   2.331000000
  C   27.407000000  51.131000000   4.695000000
  C   27.147000000  53.222000000   5.860000000
  C   27.553000000  51.900000000   5.819000000
  H   24.594000000  55.005000000   2.368000000
  H   24.891000000  54.464000000   0.730000000
  H   25.780000000  52.021000000   0.497000000
  H   26.925000000  50.289000000   1.981000000
  H   26.188000000  54.832000000   4.779000000
  H   27.682000000  50.096000000   4.673000000
  H   27.245000000  53.785000000   6.777000000
  H   27.971000000  51.456000000   6.716000000
  H   26.239000000  55.450000000   1.542000000
  C   22.460000000  39.983000000   5.508000000
  C   23.975000000  40.073000000   5.397000000
  C   24.420000000  39.626000000   4.040000000
  N   25.846000000  39.792000000   3.845000000
  C   26.419000000  40.449000000   2.826000000
  N   25.676000000  41.093000000   1.898000000
  N   27.770000000  40.499000000   2.767000000
  H   22.131000000  38.995000000   5.196000000
  H   22.021000000  40.714000000   4.826000000
  H   24.289000000  41.105000000   5.550000000
  H   24.440000000  39.443000000   6.165000000
  H   24.185000000  38.568000000   3.935000000
  H   23.833000000  40.122000000   3.279000000
  H   26.465000000  39.387000000   4.544000000
  H   24.685000000  41.222000000   2.068000000
  H   26.112000000  41.735000000   1.229000000
  H   28.219000000  41.069000000   2.063000000
  H   28.289000000  40.228000000   3.606000000
  H   22.058000000  40.171000000   6.590000000
  C   26.282000000  44.088000000   5.471000000
  C   27.314000000  44.801000000   4.637000000
  C   27.751000000  44.422000000   3.414000000
  C   27.964000000  46.059000000   4.916000000
  C   28.786000000  46.353000000   3.824000000
  C   27.904000000  46.976000000   5.975000000
  N   28.654000000  45.337000000   2.922000000
  C   29.540000000  47.507000000   3.753000000
  C   28.683000000  48.108000000   5.905000000
  C   29.483000000  48.357000000   4.806000000
  H   25.619000000  43.533000000   4.799000000
  H   25.673000000  44.886000000   5.895000000
  H   27.412000000  43.542000000   2.884000000
  H   29.050000000  45.296000000   1.992000000
  H   27.267000000  46.790000000   6.830000000
  H   30.157000000  47.679000000   2.899000000
  H   28.669000000  48.819000000   6.719000000
  H   30.081000000  49.257000000   4.788000000
  H   26.596000000  43.355000000   6.352000000
  C   34.951000000  46.004000000  -0.034000000
  S   33.141000000  45.937000000  -0.128000000
  H   35.237000000  46.687000000   0.772000000
  H   35.307000000  46.453000000  -0.965000000
  H   33.051000000  45.220000000  -1.259000000
  H   35.455000000  44.960000000   0.115000000
  C   31.014000000  42.142000000   2.509000000
  C   30.216000000  42.717000000   1.356000000
  N   30.679000000  43.829000000   0.758000000
  O   29.213000000  42.149000000   0.995000000
  H   30.335000000  41.989000000   3.346000000
  H   31.766000000  42.860000000   2.832000000
  H   30.118000000  44.186000000  -0.008000000
  H   31.551000000  44.263000000   1.023000000
  H   31.527000000  41.107000000   2.225000000
  C   32.527000000  41.803000000  -1.969000000
  C   31.047000000  41.684000000  -2.342000000
  C   30.453000000  43.024000000  -2.845000000
  O   31.172000000  44.038000000  -2.889000000
  O   29.250000000  43.069000000  -3.163000000
  H   32.670000000  42.603000000  -1.243000000
  H   33.070000000  42.067000000  -2.877000000
  H   30.937000000  40.928000000  -3.121000000
  H   30.484000000  41.357000000  -1.467000000
  H   32.946000000  40.791000000  -1.539000000
  C   33.954000000  39.286000000  -5.502000000
  C   33.548000000  39.923000000  -6.849000000
  C   32.140000000  40.453000000  -6.860000000
  O   31.229000000  39.697000000  -7.251000000
  O   31.956000000  41.641000000  -6.528000000
  H   33.196000000  38.558000000  -5.223000000
  H   33.965000000  40.055000000  -4.732000000
  H   34.256000000  40.686000000  -7.172000000
  H   33.520000000  39.123000000  -7.560000000
  H   34.976000000  38.750000000  -5.592000000
  C   38.151000000  44.317000000  -7.904000000
  C   36.725000000  44.067000000  -7.517000000
  C   35.740000000  43.460000000  -8.270000000
  C   36.109000000  44.421000000  -6.272000000
  C   34.760000000  43.981000000  -6.330000000
  C   36.567000000  45.045000000  -5.099000000
  N   34.566000000  43.404000000  -7.559000000
  C   33.874000000  44.159000000  -5.268000000
  C   35.677000000  45.224000000  -4.038000000
  C   34.351000000  44.775000000  -4.128000000
  H   38.792000000  43.908000000  -7.126000000
  H   38.259000000  45.403000000  -7.890000000
  H   35.871000000  43.063000000  -9.268000000
  H   33.700000000  42.996000000  -7.894000000
  H   37.591000000  45.385000000  -5.025000000
  H   32.853000000  43.813000000  -5.326000000
  H   36.014000000  45.716000000  -3.139000000
  H   33.691000000  44.915000000  -3.284000000
  H   38.515000000  43.892000000  -8.945000000
  C   26.677000000  40.743000000 -11.050000000
  C   27.544000000  42.020000000 -11.050000000
  C   28.305000000  42.500000000 -10.010000000
  C   27.643000000  42.994000000 -12.099000000
  C   28.506000000  44.020000000 -11.639000000
  C   27.113000000  43.079000000 -13.397000000
  N   28.890000000  43.696000000 -10.355000000
  C   28.826000000  45.146000000 -12.425000000
  C   27.427000000  44.189000000 -14.187000000
  C   28.299000000  45.203000000 -13.704000000
  H   25.749000000  40.974000000 -11.583000000
  H   26.413000000  40.537000000 -10.013000000
  H   28.417000000  42.007000000  -9.051000000
  H   29.511000000  44.229000000  -9.756000000
  H   26.464000000  42.303000000 -13.771000000
  H   29.496000000  45.907000000 -12.052000000
  H   27.021000000  44.256000000 -15.190000000
  H   28.562000000  46.033000000 -14.345000000
  H   27.122000000  39.745000000 -11.484000000
  C   26.532000000  40.609000000  -4.757000000
  C   26.782000000  40.226000000  -3.324000000
  C   26.315000000  39.189000000  -2.594000000
  N   27.610000000  40.950000000  -2.482000000
  C   27.635000000  40.372000000  -1.294000000
  N   26.831000000  39.318000000  -1.322000000
  H   27.398000000  40.313000000  -5.352000000
  H   26.445000000  41.695000000  -4.796000000
  H   28.084000000  41.824000000  -2.735000000
  H   25.630000000  38.435000000  -2.937000000
  H   28.193000000  40.721000000  -0.440000000
  H   26.644000000  38.693000000  -0.534000000
  H   25.532000000  40.127000000  -5.209000000
  C   25.910000000  45.116000000  -8.463000000
  C   25.638000000  45.173000000  -6.987000000
  C   26.051000000  44.268000000  -6.058000000
  C   24.792000000  46.104000000  -6.307000000
  C   24.797000000  45.749000000  -4.933000000
  C   24.046000000  47.239000000  -6.721000000
  N   25.558000000  44.613000000  -4.804000000
  C   24.109000000  46.500000000  -3.959000000
  C   23.381000000  47.984000000  -5.796000000
  C   23.400000000  47.616000000  -4.396000000
  H   26.789000000  44.498000000  -8.642000000
  H   26.147000000  46.088000000  -8.851000000
  H   26.676000000  43.410000000  -6.275000000
  H   25.807000000  44.161000000  -3.914000000
  H   24.005000000  47.497000000  -7.766000000
  H   24.157000000  46.219000000  -2.919000000
  H   22.811000000  48.842000000  -6.118000000
  H   22.863000000  48.224000000  -3.686000000
  C   27.349000000  48.552000000 -10.681000000
  C   27.524000000  49.224000000  -9.345000000
  C   28.271000000  50.394000000  -9.254000000
  C   26.875000000  48.726000000  -8.173000000
  C   28.389000000  51.059000000  -8.055000000
  C   27.010000000  49.378000000  -6.943000000
  C   27.769000000  50.558000000  -6.902000000
  O   27.929000000  51.301000000  -5.775000000
  H   27.051000000  47.516000000 -10.546000000
  H   28.310000000  48.557000000 -11.198000000
  H   28.768000000  50.768000000 -10.135000000
  H   26.184000000  47.921000000  -8.244000000
  H   28.970000000  51.968000000  -8.010000000
  H   26.397000000  49.088000000  -6.108000000
  H   27.655000000  50.821000000  -4.968000000
  H   26.554000000  49.138000000 -11.323000000
  C   23.745000000  42.332000000  -2.459000000
  C   24.437000000  42.208000000  -1.106000000
  C   25.712000000  43.082000000  -1.050000000
  O   26.035000000  43.722000000  -2.104000000
  O   26.386000000  43.118000000   0.019000000
  H   24.362000000  41.851000000  -3.216000000
  H   23.651000000  43.390000000  -2.707000000
  H   23.760000000  42.557000000  -0.327000000
  H   24.706000000  41.168000000  -0.919000000
  H   22.638000000  41.877000000  -2.473000000
  C   27.461000000  54.863000000  -5.621000000
  O   27.703000000  53.874000000  -6.618000000
  H   26.801000000  54.535000000  -4.853000000
  H   26.964000000  55.692000000  -6.133000000
  H   27.766000000  52.996000000  -6.202000000
  H   28.488000000  55.279000000  -5.208000000
  C   32.162000000  54.042000000  -8.228000000
  O   31.366000000  52.989000000  -8.694000000
  H   32.891000000  54.302000000  -8.997000000
  H   32.695000000  53.743000000  -7.323000000
  H   31.949000000  52.267000000  -8.974000000
  C   21.878000000  46.148000000  -1.380000000
  C   22.840000000  47.128000000  -0.739000000
  C   22.938000000  48.497000000  -0.944000000
  C   23.672000000  46.834000000   0.395000000
  C   24.302000000  48.031000000   0.795000000
  C   23.979000000  45.642000000   1.075000000
  N   23.851000000  49.044000000  -0.026000000
  C   25.202000000  48.076000000   1.880000000
  C   24.893000000  45.694000000   2.166000000
  C   25.496000000  46.883000000   2.519000000
  H   22.285000000  45.138000000  -1.330000000
  H   21.698000000  46.413000000  -2.423000000
  H   22.373000000  49.044000000  -1.682000000
  H   23.951000000  50.041000000   0.152000000
  H   23.548000000  44.706000000   0.757000000
  H   25.633000000  48.996000000   2.214000000
  H   25.136000000  44.786000000   2.698000000
  H   26.162000000  46.913000000   3.361000000
  H   20.863000000  46.213000000  -0.758000000
  C   20.776000000  51.091000000  -1.989000000
  C   21.835000000  51.336000000  -3.057000000
  C   21.756000000  50.985000000  -4.374000000
  C   23.096000000  52.000000000  -2.880000000
  C   23.730000000  52.039000000  -4.142000000
  C   23.749000000  52.589000000  -1.769000000
  N   22.913000000  51.385000000  -5.039000000
  C   25.021000000  52.624000000  -4.330000000
  C   25.008000000  53.182000000  -1.963000000
  C   25.622000000  53.184000000  -3.247000000
  H   21.243000000  50.794000000  -1.047000000
  H   20.151000000  50.280000000  -2.347000000
  H   20.963000000  50.441000000  -4.812000000
  H   23.096000000  51.247000000  -6.027000000
  H   23.306000000  52.585000000  -0.792000000
  H   25.508000000  52.579000000  -5.292000000
  H   25.552000000  53.603000000  -1.132000000
  H   26.647000000  53.518000000  -3.270000000
  H   20.081000000  52.026000000  -1.809000000
