235
charge=-2
  N   42.931000000  58.004000000  33.389000000
  C   43.802000000  56.852000000  33.651000000
  C   42.817000000  58.454000000  32.140000000
  O   43.311000000  57.852000000  31.193000000
  H   42.595000000  58.564000000  34.170000000
  H   44.696000000  56.948000000  33.034000000
  H   42.229000000  59.455000000  31.966000000
  N   41.889000000  55.345000000  33.644000000
  C   41.258000000  54.031000000  33.681000000
  C   43.155000000  55.509000000  33.289000000
  O   43.786000000  54.656000000  32.672000000
  H   41.440000000  56.086000000  34.162000000
  H   41.995000000  53.265000000  33.455000000
  H   40.392000000  53.883000000  32.901000000
  N   56.882000000  45.696000000  39.899000000
  C   56.538000000  47.107000000  39.947000000
  C   57.555000000  45.091000000  40.868000000
  O   57.900000000  45.660000000  41.915000000
  H   56.631000000  45.173000000  39.071000000
  H   56.879000000  47.559000000  40.875000000
  H   57.789000000  43.967000000  40.679000000
  N   54.472000000  48.330000000  40.398000000
  C   53.033000000  48.552000000  40.379000000
  C   55.013000000  47.255000000  39.842000000
  O   54.341000000  46.413000000  39.268000000
  H   55.062000000  48.942000000  40.954000000
  H   52.784000000  49.396000000  41.024000000
  N   51.355000000  46.795000000  40.120000000
  C   50.668000000  45.577000000  40.514000000
  C   52.256000000  47.341000000  40.919000000
  O   52.484000000  46.891000000  42.035000000
  H   51.096000000  47.255000000  39.260000000
  H   50.102000000  45.765000000  41.428000000
  H   51.434000000  44.716000000  40.728000000
  N   56.126000000  56.474000000  37.607000000
  C   57.123000000  56.083000000  36.634000000
  C   55.713000000  55.628000000  38.542000000
  O   56.138000000  54.467000000  38.634000000
  H   55.826000000  57.443000000  37.640000000
  H   56.900000000  55.083000000  36.260000000
  H   57.095000000  56.792000000  35.809000000
  H   54.897000000  56.039000000  39.275000000
  H   58.207000000  56.077000000  37.059000000
  C   49.362000000  58.325000000  32.458000000
  C   49.920000000  57.256000000  31.494000000
  C   49.125000000  55.941000000  31.548000000
  N   49.028000000  55.359000000  32.895000000
  C   49.922000000  54.523000000  33.427000000
  N   51.008000000  54.172000000  32.747000000
  N   49.744000000  54.042000000  34.649000000
  H   49.557000000  58.003000000  33.484000000
  H   48.277000000  58.388000000  32.342000000
  H   49.856000000  57.597000000  30.462000000
  H   50.966000000  57.064000000  31.742000000
  H   48.112000000  56.142000000  31.201000000
  H   49.564000000  55.226000000  30.850000000
  H   48.240000000  55.644000000  33.480000000
  H   51.178000000  54.562000000  31.835000000
  H   51.691000000  53.551000000  33.149000000
  H   48.834000000  54.211000000  35.082000000
  H   50.436000000  53.459000000  35.089000000
  H   49.827000000  59.401000000  32.313000000
  C   44.286000000  56.841000000  35.104000000
  C   44.976000000  55.543000000  35.531000000
  C   46.433000000  55.483000000  35.076000000
  O   46.947000000  56.540000000  34.614000000
  O   47.054000000  54.388000000  35.178000000
  H   44.905000000  57.714000000  35.311000000
  H   43.397000000  56.940000000  35.730000000
  H   44.981000000  55.516000000  36.619000000
  H   44.449000000  54.653000000  35.206000000
  C   40.698000000  53.789000000  35.084000000
  C   41.724000000  53.934000000  36.178000000
  C   42.756000000  52.808000000  36.197000000
  O   42.764000000  51.978000000  35.256000000
  O   43.559000000  52.752000000  37.167000000
  H   39.900000000  54.510000000  35.270000000
  H   40.247000000  52.797000000  35.137000000
  H   42.209000000  54.910000000  36.125000000
  H   41.156000000  53.931000000  37.098000000
  C   53.288000000  42.382000000  35.580000000
  C   52.295000000  43.515000000  35.658000000
  C   52.628000000  44.718000000  36.286000000
  C   51.006000000  43.373000000  35.145000000
  C   51.702000000  45.758000000  36.383000000
  C   50.080000000  44.406000000  35.229000000
  C   50.428000000  45.591000000  35.854000000
  O   49.497000000  46.601000000  35.939000000
  H   54.257000000  42.799000000  35.303000000
  H   52.995000000  41.669000000  34.811000000
  H   53.624000000  44.852000000  36.687000000
  H   50.737000000  42.457000000  34.655000000
  H   51.993000000  46.690000000  36.830000000
  H   49.089000000  44.289000000  34.813000000
  H   49.810000000  47.375000000  36.408000000
  H   53.395000000  41.857000000  36.625000000
  C   57.225000000  47.808000000  38.782000000
  C   57.250000000  49.297000000  38.828000000
  C   56.196000000  50.131000000  39.019000000
  C   58.391000000  50.135000000  38.607000000
  C   57.955000000  51.471000000  38.704000000
  C   59.740000000  49.883000000  38.354000000
  N   56.612000000  51.443000000  38.963000000
  C   58.820000000  52.560000000  38.546000000
  C   60.608000000  50.967000000  38.212000000
  C   60.138000000  52.290000000  38.303000000
  H   58.258000000  47.460000000  38.746000000
  H   56.754000000  47.496000000  37.848000000
  H   55.166000000  49.900000000  39.002000000
  H   56.010000000  52.264000000  39.002000000
  H   60.104000000  48.871000000  38.278000000
  H   58.467000000  53.576000000  38.629000000
  H   61.656000000  50.791000000  38.013000000
  H   60.831000000  53.104000000  38.170000000
  C   52.597000000  48.876000000  38.961000000
  O   51.505000000  49.759000000  39.002000000
  H   53.391000000  49.392000000  38.447000000
  H   52.390000000  47.997000000  38.364000000
  H   51.825000000  50.698000000  39.014000000
  C   49.697000000  45.136000000  39.420000000
  C   48.712000000  44.083000000  39.869000000
  C   49.112000000  42.773000000  40.079000000
  C   47.371000000  44.402000000  40.072000000
  C   48.213000000  41.812000000  40.491000000
  C   46.460000000  43.448000000  40.480000000
  C   46.888000000  42.153000000  40.693000000
  O   45.986000000  41.194000000  41.109000000
  H   49.142000000  46.005000000  39.069000000
  H   50.261000000  44.744000000  38.574000000
  H   50.126000000  42.479000000  39.887000000
  H   47.039000000  45.418000000  39.923000000
  H   48.523000000  40.786000000  40.610000000
  H   45.423000000  43.706000000  40.645000000
  H   46.284000000  40.301000000  41.391000000
  C   48.394000000  47.911000000  45.209000000
  C   47.178000000  47.697000000  46.117000000
  C   48.038000000  48.880000000  44.123000000
  H   48.635000000  46.959000000  44.740000000
  H   46.306000000  47.468000000  45.506000000
  H   47.327000000  46.845000000  46.778000000
  H   46.957000000  48.598000000  46.697000000
  H   47.179000000  48.508000000  43.565000000
  H   47.782000000  49.848000000  44.555000000
  H   48.884000000  49.013000000  43.448000000
  H   49.330000000  48.313000000  45.831000000
  C   41.994000000  46.579000000  46.926000000
  C   42.940000000  45.626000000  46.269000000
  C   43.307000000  44.385000000  46.711000000
  C   43.702000000  45.872000000  45.075000000
  C   44.491000000  44.727000000  44.841000000
  C   43.783000000  46.946000000  44.178000000
  N   44.238000000  43.836000000  45.854000000
  C   45.350000000  44.627000000  43.745000000
  C   44.640000000  46.847000000  43.096000000
  C   45.405000000  45.693000000  42.884000000
  H   41.437000000  46.046000000  47.697000000
  H   41.293000000  46.933000000  46.202000000
  H   42.908000000  43.910000000  47.595000000
  H   44.656000000  42.917000000  45.959000000
  H   43.186000000  47.835000000  44.333000000
  H   45.952000000  43.746000000  43.590000000
  H   44.721000000  47.675000000  42.403000000
  H   46.080000000  45.664000000  42.045000000
  H   42.595000000  47.471000000  47.402000000
  C   44.142000000  51.082000000  44.163000000
  C   44.725000000  51.425000000  42.804000000
  C   45.792000000  52.308000000  42.691000000
  C   44.185000000  50.886000000  41.631000000
  C   46.316000000  52.642000000  41.455000000
  C   44.696000000  51.210000000  40.395000000
  C   45.768000000  52.086000000  40.305000000
  O   46.275000000  52.413000000  39.060000000
  H   44.942000000  50.644000000  44.765000000
  H   43.364000000  50.332000000  44.082000000
  H   46.239000000  52.733000000  43.577000000
  H   43.351000000  50.201000000  41.692000000
  H   47.159000000  53.308000000  41.396000000
  H   44.273000000  50.794000000  39.495000000
  H   46.908000000  53.142000000  39.152000000
  H   43.725000000  52.034000000  44.731000000
  C   41.536000000  54.702000000  41.180000000
  C   41.619000000  53.839000000  39.900000000
  O   40.563000000  53.441000000  39.360000000
  O   42.743000000  53.601000000  39.393000000
  H   40.788000000  55.482000000  41.029000000
  H   42.474000000  55.213000000  41.360000000
  H   41.231000000  54.084000000  42.154000000
  C   41.688000000  50.197000000  38.481000000
  C   42.609000000  49.034000000  38.227000000
  C   42.867000000  48.091000000  39.217000000
  C   43.194000000  48.853000000  36.973000000
  C   43.713000000  47.001000000  38.974000000
  C   44.029000000  47.782000000  36.719000000
  C   44.291000000  46.859000000  37.717000000
  O   45.132000000  45.799000000  37.441000000
  H   41.905000000  50.977000000  37.770000000
  H   41.854000000  50.589000000  39.486000000
  H   42.438000000  48.206000000  40.202000000
  H   42.984000000  49.561000000  36.183000000
  H   43.909000000  46.283000000  39.759000000
  H   44.468000000  47.652000000  35.740000000
  H   45.202000000  45.191000000  38.180000000
  H   40.559000000  49.909000000  38.337000000
  C   49.358000000  56.431000000  39.728000000
  C   48.550000000  55.406000000  38.941000000
  N   48.651000000  55.479000000  37.621000000
  O   47.863000000  54.557000000  39.503000000
  H   49.536000000  57.286000000  39.076000000
  H   50.317000000  55.988000000  39.979000000
  H   48.065000000  54.886000000  37.046000000
  H   49.227000000  56.191000000  37.197000000
  H   48.803000000  56.827000000  40.695000000
  C   50.517000000  53.129000000  43.426000000
  C   50.627000000  52.438000000  44.756000000
  C   49.893000000  52.194000000  42.447000000
  H   51.513000000  53.393000000  43.066000000
  H   49.653000000  52.039000000  45.053000000
  H   51.328000000  51.606000000  44.671000000
  H   50.994000000  53.093000000  45.536000000
  H   50.494000000  51.288000000  42.359000000
  H   48.888000000  51.920000000  42.769000000
  H   49.833000000  52.663000000  41.464000000
  H   49.864000000  54.110000000  43.551000000
  C   53.264000000  55.754000000  38.988000000
  C   52.939000000  54.313000000  39.220000000
  C   52.559000000  53.334000000  38.365000000
  N   52.982000000  53.732000000  40.469000000
  C   52.644000000  52.458000000  40.375000000
  N   52.377000000  52.192000000  39.111000000
  H   52.497000000  56.349000000  39.480000000
  H   53.196000000  55.965000000  37.919000000
  H   53.238000000  54.226000000  41.330000000
  H   52.418000000  53.440000000  37.299000000
  H   52.588000000  51.763000000  41.202000000
  H   54.329000000  56.069000000  39.380000000
